1010957.xyz
 OpenBabel08132112073D
CNc1ncnc(c1N)S
 18 18  0  0  1  0  0  0  0  0999 V2000
   -2.4284   -0.0013    5.9925 C   0  0  0  0  0  0  0  0  0  0  0  0
   -2.3311    0.0004    4.5535 N   0  0  0  0  0  0  0  0  0  0  0  0
   -1.1751    0.0001    3.8539 C   0  0  0  0  0  0  0  0  0  0  0  0
    0.0051    0.0001    4.5009 N   0  0  0  0  0  0  0  0  0  0  0  0
    1.1011    0.0001    3.7508 C   0  0  0  0  0  0  0  0  0  0  0  0
    1.1768    0.0000    2.4215 N   0  0  0  0  0  0  0  0  0  0  0  0
   -0.0000   -0.0000    1.7774 C   0  0  0  0  0  0  0  0  0  0  0  0
   -1.2303    0.0000    2.4299 C   0  0  1  0  0  0  0  0  0  0  0  0
   -2.5037   -0.0003    1.7865 N   0  0  0  0  0  0  0  0  0  0  0  0
    0.0000    0.0000    0.0000 S   0  0  0  0  0  0  0  0  0  0  0  0
   -2.9545   -0.8987    6.3624 H   0  0  0  0  0  0  0  0  0  0  0  0
   -2.9655    0.8893    6.3631 H   0  0  0  0  0  0  0  0  0  0  0  0
   -1.4115    0.0046    6.4045 H   0  0  0  0  0  0  0  0  0  0  0  0
   -3.1636   -0.0013    3.9723 H   0  0  0  0  0  0  0  0  0  0  0  0
    2.0575    0.0002    4.2889 H   0  0  0  0  0  0  0  0  0  0  0  0
   -2.6230    0.8205    1.1902 H   0  0  0  0  0  0  0  0  0  0  0  0
   -2.6205   -0.8186    1.1862 H   0  0  0  0  0  0  0  0  0  0  0  0
    1.3491   -0.0004   -0.0823 H   0  0  0  0  0  0  0  0  0  0  0  0
  1 11  1  0  0  0  0
  1 12  1  0  0  0  0
  1 13  1  0  0  0  0
  2  1  1  0  0  0  0
  3  4  2  0  0  0  0
  3  2  1  0  0  0  0
  5 15  1  0  0  0  0
  5  4  2  0  0  0  0
  6  5  2  0  0  0  0
  7  6  2  0  0  0  0
  7  8  1  0  0  0  0
  8  9  1  1  0  0  0
  8  3  1  0  0  0  0
 10  7  1  0  0  0  0
 14  2  1  0  0  0  0
 16  9  1  0  0  0  0
 17  9  1  0  0  0  0
 18 10  1  0  0  0  0
M  RAD  1   8   2
M  END
