1044467.xyz
 OpenBabel08132112073D
CCc1ccc(cc1)C=Nn1c(S)nnc1c1ccc(cc1)Cl
 38 40  0  0  0  0  0  0  0  0999 V2000
    0.3907   -6.3218   -0.5011 C   0  0  0  0  0  0  0  0  0  0  0  0
   -0.7614   -6.3741    0.5133 C   0  0  0  0  0  0  0  0  0  0  0  0
   -1.3231   -5.0059    0.8080 C   0  0  0  0  0  0  0  0  0  0  0  0
   -0.7545   -4.1941    1.8037 C   0  0  0  0  0  0  0  0  0  0  0  0
   -1.2147   -2.9043    2.0445 C   0  0  0  0  0  0  0  0  0  0  0  0
   -2.2857   -2.3806    1.2886 C   0  0  0  0  0  0  0  0  0  0  0  0
   -2.8757   -3.2060    0.3112 C   0  0  0  0  0  0  0  0  0  0  0  0
   -2.3954   -4.4885    0.0664 C   0  0  0  0  0  0  0  0  0  0  0  0
   -2.8766   -1.0476    1.4549 C   0  0  0  0  0  0  0  0  0  0  0  0
   -2.4574    0.0401    2.0025 N   0  0  0  0  0  0  0  0  0  0  0  0
   -1.1530    0.0126    2.5002 N   0  0  0  0  0  0  0  0  0  0  0  0
   -0.0000    0.0000    1.7561 C   0  0  0  0  0  0  0  0  0  0  0  0
    0.0000    0.0000    0.0000 S   0  0  0  0  0  0  0  0  0  0  0  0
    1.0462    0.0000    2.5529 N   0  0  0  0  0  0  0  0  0  0  0  0
    0.5858    0.0208    3.8363 N   0  0  0  0  0  0  0  0  0  0  0  0
   -0.7347    0.0523    3.8203 C   0  0  0  0  0  0  0  0  0  0  0  0
   -1.5874    0.0640    5.0103 C   0  0  0  0  0  0  0  0  0  0  0  0
   -2.9582    0.3719    4.9724 C   0  0  0  0  0  0  0  0  0  0  0  0
   -3.7154    0.3835    6.1439 C   0  0  0  0  0  0  0  0  0  0  0  0
   -3.1037    0.0887    7.3637 C   0  0  0  0  0  0  0  0  0  0  0  0
   -1.7381   -0.2102    7.4241 C   0  0  0  0  0  0  0  0  0  0  0  0
   -0.9883   -0.2208    6.2528 C   0  0  0  0  0  0  0  0  0  0  0  0
   -4.0516    0.0951    8.8307 Cl  0  0  0  0  0  0  0  0  0  0  0  0
    0.7872   -7.3298   -0.7000 H   0  0  0  0  0  0  0  0  0  0  0  0
    1.2168   -5.6966   -0.1275 H   0  0  0  0  0  0  0  0  0  0  0  0
    0.0546   -5.8908   -1.4573 H   0  0  0  0  0  0  0  0  0  0  0  0
   -1.5630   -7.0245    0.1268 H   0  0  0  0  0  0  0  0  0  0  0  0
   -0.4047   -6.8327    1.4500 H   0  0  0  0  0  0  0  0  0  0  0  0
    0.0709   -4.5828    2.4054 H   0  0  0  0  0  0  0  0  0  0  0  0
   -0.7447   -2.3247    2.8353 H   0  0  0  0  0  0  0  0  0  0  0  0
   -3.7205   -2.8258   -0.2688 H   0  0  0  0  0  0  0  0  0  0  0  0
   -2.8639   -5.1043   -0.7057 H   0  0  0  0  0  0  0  0  0  0  0  0
   -3.8798   -0.9354    1.0212 H   0  0  0  0  0  0  0  0  0  0  0  0
    1.3511    0.0272   -0.0422 H   0  0  0  0  0  0  0  0  0  0  0  0
   -3.4323    0.6172    4.0223 H   0  0  0  0  0  0  0  0  0  0  0  0
   -4.7787    0.6253    6.1156 H   0  0  0  0  0  0  0  0  0  0  0  0
   -1.2744   -0.4333    8.3859 H   0  0  0  0  0  0  0  0  0  0  0  0
    0.0786   -0.4459    6.2776 H   0  0  0  0  0  0  0  0  0  0  0  0
  1 25  1  0  0  0  0
  1  2  1  0  0  0  0
  2  3  1  0  0  0  0
  2 28  1  0  0  0  0
  3  4  2  0  0  0  0
  4  5  1  0  0  0  0
  4 29  1  0  0  0  0
  5 30  1  0  0  0  0
  6  9  1  0  0  0  0
  6  5  2  0  0  0  0
  7  6  1  0  0  0  0
  8  7  2  0  0  0  0
  8  3  1  0  0  0  0
  9 10  2  0  0  0  0
 10 11  1  0  0  0  0
 11 16  1  0  0  0  0
 12 11  1  0  0  0  0
 12 14  2  0  0  0  0
 13 12  1  0  0  0  0
 14 15  1  0  0  0  0
 16 15  2  0  0  0  0
 16 17  1  0  0  0  0
 17 22  1  0  0  0  0
 18 17  2  0  0  0  0
 18 19  1  0  0  0  0
 19 20  2  0  0  0  0
 20 21  1  0  0  0  0
 20 23  1  0  0  0  0
 21 37  1  0  0  0  0
 22 38  1  0  0  0  0
 22 21  2  0  0  0  0
 24  1  1  0  0  0  0
 26  1  1  0  0  0  0
 27  2  1  0  0  0  0
 31  7  1  0  0  0  0
 32  8  1  0  0  0  0
 33  9  1  0  0  0  0
 34 13  1  0  0  0  0
 35 18  1  0  0  0  0
 36 19  1  0  0  0  0
M  END
