1044367.xyz
 OpenBabel08132112073D
COc1ccc(cc1OCc1ccccc1)C=Nn1c(S)nnc1c1ccccc1
 50 53  0  0  0  0  0  0  0  0999 V2000
    0.0293    7.0206    2.0065 C   0  0  0  0  0  0  0  0  0  0  0  0
   -1.1766    6.5624    1.4251 O   0  0  0  0  0  0  0  0  0  0  0  0
   -1.5110    5.2624    1.5328 C   0  0  0  0  0  0  0  0  0  0  0  0
   -0.7533    4.2991    2.2156 C   0  0  0  0  0  0  0  0  0  0  0  0
   -1.1504    2.9650    2.2548 C   0  0  0  0  0  0  0  0  0  0  0  0
   -2.3346    2.5507    1.6120 C   0  0  0  0  0  0  0  0  0  0  0  0
   -3.1028    3.5355    0.9501 C   0  0  0  0  0  0  0  0  0  0  0  0
   -2.7144    4.8658    0.8957 C   0  0  0  0  0  0  0  0  0  0  0  0
   -3.4668    5.7501    0.1861 O   0  0  0  0  0  0  0  0  0  0  0  0
   -4.1059    6.7942    0.9144 C   0  0  0  0  0  0  0  0  0  0  0  0
   -5.0213    7.5707    0.0024 C   0  0  0  0  0  0  0  0  0  0  0  0
   -5.5309    8.8039    0.4340 C   0  0  0  0  0  0  0  0  0  0  0  0
   -6.4087    9.5308   -0.3713 C   0  0  0  0  0  0  0  0  0  0  0  0
   -6.7821    9.0361   -1.6250 C   0  0  0  0  0  0  0  0  0  0  0  0
   -6.2714    7.8121   -2.0627 C   0  0  0  0  0  0  0  0  0  0  0  0
   -5.3969    7.0807   -1.2534 C   0  0  0  0  0  0  0  0  0  0  0  0
   -2.8832    1.1941    1.5743 C   0  0  0  0  0  0  0  0  0  0  0  0
   -2.4504    0.0403    1.9534 N   0  0  0  0  0  0  0  0  0  0  0  0
   -1.1577    0.0235    2.4867 N   0  0  0  0  0  0  0  0  0  0  0  0
    0.0000    0.0000    1.7559 C   0  0  0  0  0  0  0  0  0  0  0  0
    0.0000    0.0000    0.0000 S   0  0  0  0  0  0  0  0  0  0  0  0
    1.0402   -0.0000    2.5625 N   0  0  0  0  0  0  0  0  0  0  0  0
    0.5651    0.0096    3.8420 N   0  0  0  0  0  0  0  0  0  0  0  0
   -0.7563    0.0050    3.8118 C   0  0  0  0  0  0  0  0  0  0  0  0
   -1.6281    0.0312    4.9888 C   0  0  0  0  0  0  0  0  0  0  0  0
   -1.0550    0.3771    6.2277 C   0  0  0  0  0  0  0  0  0  0  0  0
   -1.8349    0.4007    7.3811 C   0  0  0  0  0  0  0  0  0  0  0  0
   -3.1959    0.0797    7.3200 C   0  0  0  0  0  0  0  0  0  0  0  0
   -3.7677   -0.2737    6.0956 C   0  0  0  0  0  0  0  0  0  0  0  0
   -2.9930   -0.3008    4.9341 C   0  0  0  0  0  0  0  0  0  0  0  0
    0.9038    6.5020    1.5784 H   0  0  0  0  0  0  0  0  0  0  0  0
    0.0285    6.8838    3.1015 H   0  0  0  0  0  0  0  0  0  0  0  0
    0.0955    8.0911    1.7759 H   0  0  0  0  0  0  0  0  0  0  0  0
    0.1700    4.5824    2.7190 H   0  0  0  0  0  0  0  0  0  0  0  0
   -0.5193    2.2712    2.8009 H   0  0  0  0  0  0  0  0  0  0  0  0
   -4.0330    3.2662    0.4456 H   0  0  0  0  0  0  0  0  0  0  0  0
   -3.3547    7.4664    1.3590 H   0  0  0  0  0  0  0  0  0  0  0  0
   -4.6881    6.3495    1.7453 H   0  0  0  0  0  0  0  0  0  0  0  0
   -5.2353    9.2000    1.4102 H   0  0  0  0  0  0  0  0  0  0  0  0
   -6.7984   10.4902   -0.0222 H   0  0  0  0  0  0  0  0  0  0  0  0
   -7.4655    9.6060   -2.2590 H   0  0  0  0  0  0  0  0  0  0  0  0
   -6.5541    7.4213   -3.0434 H   0  0  0  0  0  0  0  0  0  0  0  0
   -4.9910    6.1275   -1.5929 H   0  0  0  0  0  0  0  0  0  0  0  0
   -3.8845    1.1298    1.1273 H   0  0  0  0  0  0  0  0  0  0  0  0
    1.3510    0.0327   -0.0446 H   0  0  0  0  0  0  0  0  0  0  0  0
    0.0082    0.6188    6.2590 H   0  0  0  0  0  0  0  0  0  0  0  0
   -1.3791    0.6721    8.3364 H   0  0  0  0  0  0  0  0  0  0  0  0
   -3.8068    0.1015    8.2257 H   0  0  0  0  0  0  0  0  0  0  0  0
   -4.8268   -0.5371    6.0418 H   0  0  0  0  0  0  0  0  0  0  0  0
   -3.4406   -0.5934    3.9843 H   0  0  0  0  0  0  0  0  0  0  0  0
  1 32  1  0  0  0  0
  2  3  1  0  0  0  0
  2  1  1  0  0  0  0
  3  4  2  0  0  0  0
  4  5  1  0  0  0  0
  4 34  1  0  0  0  0
  5 35  1  0  0  0  0
  6  5  2  0  0  0  0
  7  6  1  0  0  0  0
  8  7  2  0  0  0  0
  8  3  1  0  0  0  0
  9  8  1  0  0  0  0
  9 10  1  0  0  0  0
 10 37  1  0  0  0  0
 10 38  1  0  0  0  0
 11 12  1  0  0  0  0
 11 10  1  0  0  0  0
 12 39  1  0  0  0  0
 13 40  1  0  0  0  0
 13 12  2  0  0  0  0
 14 13  1  0  0  0  0
 15 14  2  0  0  0  0
 15 16  1  0  0  0  0
 16 11  2  0  0  0  0
 17  6  1  0  0  0  0
 17 18  2  0  0  0  0
 18 19  1  0  0  0  0
 19 24  1  0  0  0  0
 20 19  1  0  0  0  0
 20 22  2  0  0  0  0
 21 20  1  0  0  0  0
 22 23  1  0  0  0  0
 24 23  2  0  0  0  0
 24 25  1  0  0  0  0
 25 26  1  0  0  0  0
 26 46  1  0  0  0  0
 26 27  2  0  0  0  0
 27 47  1  0  0  0  0
 28 27  1  0  0  0  0
 28 48  1  0  0  0  0
 29 28  2  0  0  0  0
 30 25  2  0  0  0  0
 30 29  1  0  0  0  0
 31  1  1  0  0  0  0
 33  1  1  0  0  0  0
 36  7  1  0  0  0  0
 41 14  1  0  0  0  0
 42 15  1  0  0  0  0
 43 16  1  0  0  0  0
 44 17  1  0  0  0  0
 45 21  1  0  0  0  0
 49 29  1  0  0  0  0
 50 30  1  0  0  0  0
M  END
