1044829.xyz
 OpenBabel08132112073D
C/C(=C\c1ccco1)/C=N/n1c(S)nnc1c1ccc(cc1Cl)Cl
 36 38  0  0  0  0  0  0  0  0999 V2000
   -5.1844   -0.7121    1.9128 C   0  0  0  0  0  0  0  0  0  0  0  0
   -4.3508    0.0125    0.8951 C   0  0  0  0  0  0  0  0  0  0  0  0
   -4.7817    0.5454   -0.2845 C   0  0  0  0  0  0  0  0  0  0  0  0
   -6.0832    0.5669   -0.8882 C   0  0  0  0  0  0  0  0  0  0  0  0
   -6.4862    1.1168   -2.0914 C   0  0  0  0  0  0  0  0  0  0  0  0
   -7.8832    0.8607   -2.2167 C   0  0  0  0  0  0  0  0  0  0  0  0
   -8.2405    0.1744   -1.0872 C   0  0  0  0  0  0  0  0  0  0  0  0
   -7.1677   -0.0072   -0.2831 O   0  0  0  0  0  0  0  0  0  0  0  0
   -2.9413    0.1914    1.2042 C   0  0  0  0  0  0  0  0  0  0  0  0
   -2.4487   -0.2977    2.2868 N   0  0  0  0  0  0  0  0  0  0  0  0
   -1.1262   -0.1003    2.5601 N   0  0  0  0  0  0  0  0  0  0  0  0
   -0.0000   -0.0000    1.7595 C   0  0  0  0  0  0  0  0  0  0  0  0
    0.0000    0.0000    0.0000 S   0  0  0  0  0  0  0  0  0  0  0  0
    1.0780   -0.0000    2.5071 N   0  0  0  0  0  0  0  0  0  0  0  0
    0.6872   -0.0994    3.8175 N   0  0  0  0  0  0  0  0  0  0  0  0
   -0.6221   -0.1613    3.8521 C   0  0  0  0  0  0  0  0  0  0  0  0
   -1.4364   -0.3409    5.0608 C   0  0  0  0  0  0  0  0  0  0  0  0
   -1.0706   -1.3611    5.9558 C   0  0  0  0  0  0  0  0  0  0  0  0
   -1.7814   -1.5985    7.1286 C   0  0  0  0  0  0  0  0  0  0  0  0
   -2.8884   -0.7979    7.4212 C   0  0  0  0  0  0  0  0  0  0  0  0
   -3.2672    0.2423    6.5715 C   0  0  0  0  0  0  0  0  0  0  0  0
   -2.5334    0.4707    5.4062 C   0  0  0  0  0  0  0  0  0  0  0  0
   -2.9774    1.8504    4.4313 Cl  0  0  0  0  0  0  0  0  0  0  0  0
   -3.8067   -1.0866    8.8755 Cl  0  0  0  0  0  0  0  0  0  0  0  0
   -5.1417   -0.1701    2.8714 H   0  0  0  0  0  0  0  0  0  0  0  0
   -6.2262   -0.8167    1.5990 H   0  0  0  0  0  0  0  0  0  0  0  0
   -4.7566   -1.7074    2.1105 H   0  0  0  0  0  0  0  0  0  0  0  0
   -4.0344    1.0505   -0.9048 H   0  0  0  0  0  0  0  0  0  0  0  0
   -5.8433    1.6413   -2.7948 H   0  0  0  0  0  0  0  0  0  0  0  0
   -8.5393    1.1467   -3.0354 H   0  0  0  0  0  0  0  0  0  0  0  0
   -9.1816   -0.2344   -0.7290 H   0  0  0  0  0  0  0  0  0  0  0  0
   -2.3432    0.7868    0.4980 H   0  0  0  0  0  0  0  0  0  0  0  0
    1.3383   -0.2000   -0.0385 H   0  0  0  0  0  0  0  0  0  0  0  0
   -0.2048   -1.9758    5.7051 H   0  0  0  0  0  0  0  0  0  0  0  0
   -1.4901   -2.3981    7.8100 H   0  0  0  0  0  0  0  0  0  0  0  0
   -4.1126    0.8824    6.8200 H   0  0  0  0  0  0  0  0  0  0  0  0
  1 27  1  0  0  0  0
  1 25  1  0  0  0  0
  2  9  1  0  0  0  0
  2  1  1  0  0  0  0
  3  2  2  0  0  0  0
  4  3  1  0  0  0  0
  4  8  1  0  0  0  0
  5  4  2  0  0  0  0
  6  5  1  0  0  0  0
  6  7  2  0  0  0  0
  7 31  1  0  0  0  0
  7  8  1  0  0  0  0
  9 10  2  0  0  0  0
 10 11  1  0  0  0  0
 11 16  1  0  0  0  0
 12 14  2  0  0  0  0
 12 11  1  0  0  0  0
 13 12  1  0  0  0  0
 14 15  1  0  0  0  0
 15 16  2  0  0  0  0
 16 17  1  0  0  0  0
 17 22  2  0  0  0  0
 17 18  1  0  0  0  0
 18 19  2  0  0  0  0
 19 20  1  0  0  0  0
 19 35  1  0  0  0  0
 20 24  1  0  0  0  0
 21 36  1  0  0  0  0
 21 20  2  0  0  0  0
 22 21  1  0  0  0  0
 23 22  1  0  0  0  0
 26  1  1  0  0  0  0
 28  3  1  0  0  0  0
 29  5  1  0  0  0  0
 30  6  1  0  0  0  0
 32  9  1  0  0  0  0
 33 13  1  0  0  0  0
 34 18  1  0  0  0  0
M  END
