107144930.xyz
 OpenBabel08132112073D
SCc1c(OC)ccc2c1cccc2
 26 27  0  0  0  0  0  0  0  0999 V2000
    0.0000    0.0000    0.0000 S   0  0  0  0  0  0  0  0  0  0  0  0
    0.0000    0.0000    1.8553 C   0  0  0  0  0  0  0  0  0  0  0  0
    1.4127    0.0000    2.3633 C   0  0  0  0  0  0  0  0  0  0  0  0
    1.9898   -1.2017    2.7774 C   0  0  0  0  0  0  0  0  0  0  0  0
    1.2147   -2.3143    2.6891 O   0  0  0  0  0  0  0  0  0  0  0  0
    1.7328   -3.5652    3.0766 C   0  0  0  0  0  0  0  0  0  0  0  0
    3.3181   -1.2362    3.2777 C   0  0  0  0  0  0  0  0  0  0  0  0
    4.0599   -0.0781    3.3488 C   0  0  0  0  0  0  0  0  0  0  0  0
    3.5276    1.1639    2.9213 C   0  0  0  0  0  0  0  0  0  0  0  0
    2.1870    1.2001    2.4074 C   0  0  0  0  0  0  0  0  0  0  0  0
    1.6802    2.4537    1.9544 C   0  0  0  0  0  0  0  0  0  0  0  0
    2.4457    3.5978    2.0246 C   0  0  0  0  0  0  0  0  0  0  0  0
    3.7623    3.5595    2.5481 C   0  0  0  0  0  0  0  0  0  0  0  0
    4.2889    2.3636    2.9825 C   0  0  0  0  0  0  0  0  0  0  0  0
   -1.3451   -0.0582   -0.1499 H   0  0  0  0  0  0  0  0  0  0  0  0
   -0.5420    0.8877    2.2097 H   0  0  0  0  0  0  0  0  0  0  0  0
   -0.5195   -0.8994    2.2026 H   0  0  0  0  0  0  0  0  0  0  0  0
    2.0091   -3.5850    4.1461 H   0  0  0  0  0  0  0  0  0  0  0  0
    2.6144   -3.8491    2.4752 H   0  0  0  0  0  0  0  0  0  0  0  0
    0.9346   -4.2990    2.9030 H   0  0  0  0  0  0  0  0  0  0  0  0
    3.7572   -2.1764    3.6085 H   0  0  0  0  0  0  0  0  0  0  0  0
    5.0808   -0.1100    3.7376 H   0  0  0  0  0  0  0  0  0  0  0  0
    0.6830    2.5016    1.5169 H   0  0  0  0  0  0  0  0  0  0  0  0
    2.0354    4.5449    1.6656 H   0  0  0  0  0  0  0  0  0  0  0  0
    4.3556    4.4753    2.5979 H   0  0  0  0  0  0  0  0  0  0  0  0
    5.3060    2.3162    3.3807 H   0  0  0  0  0  0  0  0  0  0  0  0
  1  2  1  0  0  0  0
  2 17  1  0  0  0  0
  2 16  1  0  0  0  0
  2  3  1  0  0  0  0
  3 10  2  0  0  0  0
  3  4  1  0  0  0  0
  4  7  2  0  0  0  0
  5  4  1  0  0  0  0
  5  6  1  0  0  0  0
  6 18  1  0  0  0  0
  7  8  1  0  0  0  0
  7 21  1  0  0  0  0
  8 22  1  0  0  0  0
  9 14  1  0  0  0  0
  9  8  2  0  0  0  0
 10  9  1  0  0  0  0
 11 12  2  0  0  0  0
 11 10  1  0  0  0  0
 12 13  1  0  0  0  0
 13 25  1  0  0  0  0
 13 14  2  0  0  0  0
 14 26  1  0  0  0  0
 15  1  1  0  0  0  0
 19  6  1  0  0  0  0
 20  6  1  0  0  0  0
 23 11  1  0  0  0  0
 24 12  1  0  0  0  0
M  END
