107336468.xyz
 OpenBabel08132112073D
Cc1cn(c(n1)S)CC1COCCO1
 28 29  0  0  1  0  0  0  0  0999 V2000
   -1.4909   -0.0138    5.0212 C   0  0  0  0  0  0  0  0  0  0  0  0
   -0.5708   -0.0112    3.8440 C   0  0  0  0  0  0  0  0  0  0  0  0
    0.8047   -0.0197    3.8226 C   0  0  0  0  0  0  0  0  0  0  0  0
    1.1709    0.0000    2.4828 N   0  0  0  0  0  0  0  0  0  0  0  0
    0.0000   -0.0000    1.7715 C   0  0  0  0  0  0  0  0  0  0  0  0
   -1.0567   -0.0010    2.5481 N   0  0  0  0  0  0  0  0  0  0  0  0
    0.0000    0.0000    0.0000 S   0  0  0  0  0  0  0  0  0  0  0  0
    2.5131   -0.0493    1.9474 C   0  0  0  0  0  0  0  0  0  0  0  0
    3.0338   -1.4731    1.7529 C   0  0  1  0  0  0  0  0  0  0  0  0
    4.4789   -1.4629    1.2271 C   0  0  0  0  0  0  0  0  0  0  0  0
    5.3696   -1.1948    2.2841 O   0  0  0  0  0  0  0  0  0  0  0  0
    5.3588   -2.1965    3.2936 C   0  0  0  0  0  0  0  0  0  0  0  0
    4.0438   -2.9831    3.2845 C   0  0  0  0  0  0  0  0  0  0  0  0
    2.9646   -2.1153    3.0219 O   0  0  0  0  0  0  0  0  0  0  0  0
   -2.1358    0.8804    5.0203 H   0  0  0  0  0  0  0  0  0  0  0  0
   -2.1577   -0.8914    4.9972 H   0  0  0  0  0  0  0  0  0  0  0  0
   -0.9277   -0.0328    5.9657 H   0  0  0  0  0  0  0  0  0  0  0  0
    1.5516   -0.0610    4.6093 H   0  0  0  0  0  0  0  0  0  0  0  0
   -1.3377    0.1739   -0.0616 H   0  0  0  0  0  0  0  0  0  0  0  0
    2.5231    0.4832    0.9833 H   0  0  0  0  0  0  0  0  0  0  0  0
    3.1934    0.4785    2.6316 H   0  0  0  0  0  0  0  0  0  0  0  0
    2.3782   -2.0009    1.0310 H   0  0  0  0  0  0  0  0  0  0  0  0
    4.7188   -2.4192    0.7235 H   0  0  0  0  0  0  0  0  0  0  0  0
    4.6078   -0.6648    0.4806 H   0  0  0  0  0  0  0  0  0  0  0  0
    5.4832   -1.6722    4.2544 H   0  0  0  0  0  0  0  0  0  0  0  0
    6.2164   -2.8883    3.1686 H   0  0  0  0  0  0  0  0  0  0  0  0
    3.8636   -3.4395    4.2690 H   0  0  0  0  0  0  0  0  0  0  0  0
    4.0763   -3.8073    2.5453 H   0  0  0  0  0  0  0  0  0  0  0  0
  1 17  1  0  0  0  0
  2  1  1  0  0  0  0
  3  2  1  0  0  0  0
  3 18  1  0  0  0  0
  4  3  1  0  0  0  0
  5  4  1  0  0  0  0
  5  6  2  0  0  0  0
  6  2  2  0  0  0  0
  7  5  1  0  0  0  0
  8  4  1  0  0  0  0
  8 21  1  0  0  0  0
  9 22  1  6  0  0  0
  9  8  1  0  0  0  0
  9 14  1  0  0  0  0
 10  9  1  0  0  0  0
 10 11  1  0  0  0  0
 11 12  1  0  0  0  0
 12 25  1  0  0  0  0
 13 12  1  0  0  0  0
 13 27  1  0  0  0  0
 14 13  1  0  0  0  0
 15  1  1  0  0  0  0
 16  1  1  0  0  0  0
 19  7  1  0  0  0  0
 20  8  1  0  0  0  0
 23 10  1  0  0  0  0
 24 10  1  0  0  0  0
 26 12  1  0  0  0  0
 28 13  1  0  0  0  0
M  RAD  1   3   2
M  END
