107391737.xyz
 OpenBabel08132112073D
SCC1(CC1)CN1CC(C(C1)(C)C)O
 35 36  0  0  1  0  0  0  0  0999 V2000
    0.0000    0.0000    0.0000 S   0  0  0  0  0  0  0  0  0  0  0  0
    0.0000   -0.0000    1.8434 C   0  0  0  0  0  0  0  0  0  0  0  0
    1.3753    0.0000    2.4746 C   0  0  0  0  0  0  0  0  0  0  0  0
    1.5121   -0.6579    3.8257 C   0  0  0  0  0  0  0  0  0  0  0  0
    2.0836   -1.3246    2.5992 C   0  0  0  0  0  0  0  0  0  0  0  0
    2.2020    1.2532    2.1870 C   0  0  0  0  0  0  0  0  0  0  0  0
    3.5190    1.2540    2.7761 N   0  0  0  0  0  0  0  0  0  0  0  0
    4.6880    1.0756    1.9237 C   0  0  0  0  0  0  0  0  0  0  0  0
    5.7868    1.9183    2.5814 C   0  0  1  0  0  0  0  0  0  0  0  0
    5.3218    2.0617    4.0582 C   0  0  0  0  0  0  0  0  0  0  0  0
    3.8099    2.2078    3.8339 C   0  0  0  0  0  0  0  0  0  0  0  0
    5.9463    3.2777    4.7411 C   0  0  0  0  0  0  0  0  0  0  0  0
    5.6333    0.7837    4.8484 C   0  0  0  0  0  0  0  0  0  0  0  0
    7.0438    1.3121    2.3906 O   0  0  0  0  0  0  0  0  0  0  0  0
    0.7275   -1.1325   -0.1396 H   0  0  0  0  0  0  0  0  0  0  0  0
   -0.5532    0.9146    2.1140 H   0  0  0  0  0  0  0  0  0  0  0  0
   -0.5944   -0.8546    2.1989 H   0  0  0  0  0  0  0  0  0  0  0  0
    2.2242   -0.2162    4.5264 H   0  0  0  0  0  0  0  0  0  0  0  0
    0.6184   -1.0899    4.2855 H   0  0  0  0  0  0  0  0  0  0  0  0
    1.5807   -2.2168    2.2133 H   0  0  0  0  0  0  0  0  0  0  0  0
    3.1704   -1.3285    2.4936 H   0  0  0  0  0  0  0  0  0  0  0  0
    1.6315    2.1298    2.5512 H   0  0  0  0  0  0  0  0  0  0  0  0
    2.2713    1.3679    1.0899 H   0  0  0  0  0  0  0  0  0  0  0  0
    5.0272    0.0235    1.8765 H   0  0  0  0  0  0  0  0  0  0  0  0
    4.4962    1.3981    0.8830 H   0  0  0  0  0  0  0  0  0  0  0  0
    5.7775    2.9326    2.1336 H   0  0  0  0  0  0  0  0  0  0  0  0
    3.2318    1.9892    4.7485 H   0  0  0  0  0  0  0  0  0  0  0  0
    3.5640    3.2552    3.5418 H   0  0  0  0  0  0  0  0  0  0  0  0
    7.0413    3.1653    4.8175 H   0  0  0  0  0  0  0  0  0  0  0  0
    5.5618    3.4034    5.7660 H   0  0  0  0  0  0  0  0  0  0  0  0
    5.7376    4.2057    4.1842 H   0  0  0  0  0  0  0  0  0  0  0  0
    5.1197   -0.0872    4.4165 H   0  0  0  0  0  0  0  0  0  0  0  0
    6.7128    0.5751    4.8408 H   0  0  0  0  0  0  0  0  0  0  0  0
    5.3047    0.8899    5.8944 H   0  0  0  0  0  0  0  0  0  0  0  0
    7.7257    1.9222    2.6988 H   0  0  0  0  0  0  0  0  0  0  0  0
  1  2  1  0  0  0  0
  2 16  1  0  0  0  0
  2 17  1  0  0  0  0
  2  3  1  0  0  0  0
  3  5  1  0  0  0  0
  3  4  1  0  0  0  0
  4 19  1  0  0  0  0
  4 18  1  0  0  0  0
  5  4  1  0  0  0  0
  6  3  1  0  0  0  0
  6 22  1  0  0  0  0
  6  7  1  0  0  0  0
  7 11  1  0  0  0  0
  8  9  1  0  0  0  0
  8  7  1  0  0  0  0
  9 26  1  6  0  0  0
  9 10  1  0  0  0  0
 10 12  1  0  0  0  0
 10 13  1  0  0  0  0
 11 10  1  0  0  0  0
 11 27  1  0  0  0  0
 12 29  1  0  0  0  0
 12 30  1  0  0  0  0
 13 34  1  0  0  0  0
 14  9  1  0  0  0  0
 14 35  1  0  0  0  0
 15  1  1  0  0  0  0
 20  5  1  0  0  0  0
 21  5  1  0  0  0  0
 23  6  1  0  0  0  0
 24  8  1  0  0  0  0
 25  8  1  0  0  0  0
 28 11  1  0  0  0  0
 31 12  1  0  0  0  0
 32 13  1  0  0  0  0
 33 13  1  0  0  0  0
M  END
