107454895.xyz
 OpenBabel08132112073D
SCC(CN1CCCC(C1)(C)C)C
 36 36  0  0  1  0  0  0  0  0999 V2000
    0.0000    0.0000    0.0000 S   0  0  0  0  0  0  0  0  0  0  0  0
   -0.0000   -0.0000    1.8357 C   0  0  0  0  0  0  0  0  0  0  0  0
    1.3790   -0.0000    2.5019 C   0  0  1  0  0  0  0  0  0  0  0  0
    1.2015    0.2330    4.0164 C   0  0  0  0  0  0  0  0  0  0  0  0
    2.4500    0.2965    4.7402 N   0  0  0  0  0  0  0  0  0  0  0  0
    3.2363    1.4953    4.4879 C   0  0  0  0  0  0  0  0  0  0  0  0
    4.3025    1.6827    5.5627 C   0  0  0  0  0  0  0  0  0  0  0  0
    3.6858    1.8304    6.9624 C   0  0  0  0  0  0  0  0  0  0  0  0
    2.4784    0.8681    7.2030 C   0  0  0  0  0  0  0  0  0  0  0  0
    2.4979   -0.2167    6.1021 C   0  0  0  0  0  0  0  0  0  0  0  0
    2.5991    0.1917    8.5740 C   0  0  0  0  0  0  0  0  0  0  0  0
    1.1555    1.6483    7.1364 C   0  0  0  0  0  0  0  0  0  0  0  0
    2.1711   -1.2760    2.2281 C   0  0  0  0  0  0  0  0  0  0  0  0
    0.4065   -1.2783   -0.1684 H   0  0  0  0  0  0  0  0  0  0  0  0
   -0.6082   -0.8470    2.1935 H   0  0  0  0  0  0  0  0  0  0  0  0
   -0.5485    0.9180    2.0999 H   0  0  0  0  0  0  0  0  0  0  0  0
    1.9383    0.8549    2.0835 H   0  0  0  0  0  0  0  0  0  0  0  0
    0.6033   -0.5970    4.4281 H   0  0  0  0  0  0  0  0  0  0  0  0
    0.5936    1.1580    4.1536 H   0  0  0  0  0  0  0  0  0  0  0  0
    3.7132    1.4390    3.4927 H   0  0  0  0  0  0  0  0  0  0  0  0
    2.5849    2.4005    4.4612 H   0  0  0  0  0  0  0  0  0  0  0  0
    4.9171    2.5637    5.3203 H   0  0  0  0  0  0  0  0  0  0  0  0
    4.9828    0.8154    5.5367 H   0  0  0  0  0  0  0  0  0  0  0  0
    3.3519    2.8714    7.1075 H   0  0  0  0  0  0  0  0  0  0  0  0
    4.4667    1.6535    7.7195 H   0  0  0  0  0  0  0  0  0  0  0  0
    3.4073   -0.8310    6.2435 H   0  0  0  0  0  0  0  0  0  0  0  0
    1.6473   -0.9011    6.2433 H   0  0  0  0  0  0  0  0  0  0  0  0
    3.5157   -0.4171    8.6382 H   0  0  0  0  0  0  0  0  0  0  0  0
    2.6370    0.9416    9.3808 H   0  0  0  0  0  0  0  0  0  0  0  0
    1.7394   -0.4701    8.7711 H   0  0  0  0  0  0  0  0  0  0  0  0
    0.2905    0.9729    7.2409 H   0  0  0  0  0  0  0  0  0  0  0  0
    1.0468    2.1866    6.1837 H   0  0  0  0  0  0  0  0  0  0  0  0
    1.1022    2.3936    7.9467 H   0  0  0  0  0  0  0  0  0  0  0  0
    2.4038   -1.3835    1.1582 H   0  0  0  0  0  0  0  0  0  0  0  0
    3.1136   -1.2634    2.7937 H   0  0  0  0  0  0  0  0  0  0  0  0
    1.6017   -2.1663    2.5492 H   0  0  0  0  0  0  0  0  0  0  0  0
  1  2  1  0  0  0  0
  2 16  1  0  0  0  0
  2 15  1  0  0  0  0
  2  3  1  0  0  0  0
  3 17  1  6  0  0  0
  3  4  1  0  0  0  0
  4 19  1  0  0  0  0
  4 18  1  0  0  0  0
  4  5  1  0  0  0  0
  5 10  1  0  0  0  0
  6  5  1  0  0  0  0
  6  7  1  0  0  0  0
  7  8  1  0  0  0  0
  8 24  1  0  0  0  0
  8  9  1  0  0  0  0
  8 25  1  0  0  0  0
  9 11  1  0  0  0  0
 10 27  1  0  0  0  0
 10 26  1  0  0  0  0
 10  9  1  0  0  0  0
 11 28  1  0  0  0  0
 11 30  1  0  0  0  0
 11 29  1  0  0  0  0
 12  9  1  0  0  0  0
 12 31  1  0  0  0  0
 12 33  1  0  0  0  0
 13  3  1  0  0  0  0
 13 36  1  0  0  0  0
 13 35  1  0  0  0  0
 14  1  1  0  0  0  0
 20  6  1  0  0  0  0
 21  6  1  0  0  0  0
 22  7  1  0  0  0  0
 23  7  1  0  0  0  0
 32 12  1  0  0  0  0
 34 13  1  0  0  0  0
M  END
