107588959.xyz
 OpenBabel08132112073D
SCCCN1CCCC2C1CCCC2
 37 38  0  0  1  0  0  0  0  0999 V2000
    0.0000    0.0000    0.0000 S   0  0  0  0  0  0  0  0  0  0  0  0
    0.0000    0.0000    1.8397 C   0  0  0  0  0  0  0  0  0  0  0  0
    1.3869    0.0000    2.4849 C   0  0  0  0  0  0  0  0  0  0  0  0
    2.1230   -1.3452    2.4510 C   0  0  0  0  0  0  0  0  0  0  0  0
    2.4284   -1.8432    1.1102 N   0  0  0  0  0  0  0  0  0  0  0  0
    3.5246   -1.1326    0.4482 C   0  0  0  0  0  0  0  0  0  0  0  0
    4.9135   -1.5752    0.9244 C   0  0  0  0  0  0  0  0  0  0  0  0
    5.0717   -3.0912    0.7806 C   0  0  0  0  0  0  0  0  0  0  0  0
    3.9265   -3.8317    1.4890 C   0  0  1  0  0  0  0  0  0  0  0  0
    2.5485   -3.3042    1.0105 C   0  0  2  0  0  0  0  0  0  0  0  0
    2.1976   -3.8029   -0.3998 C   0  0  0  0  0  0  0  0  0  0  0  0
    2.2722   -5.3302   -0.4887 C   0  0  0  0  0  0  0  0  0  0  0  0
    3.6485   -5.8492   -0.0623 C   0  0  0  0  0  0  0  0  0  0  0  0
    4.0075   -5.3599    1.3450 C   0  0  0  0  0  0  0  0  0  0  0  0
    0.8711   -1.0418   -0.0647 H   0  0  0  0  0  0  0  0  0  0  0  0
   -0.5494    0.9103    2.1237 H   0  0  0  0  0  0  0  0  0  0  0  0
   -0.5902   -0.8572    2.2044 H   0  0  0  0  0  0  0  0  0  0  0  0
    1.2744    0.2705    3.5503 H   0  0  0  0  0  0  0  0  0  0  0  0
    1.9998    0.7968    2.0323 H   0  0  0  0  0  0  0  0  0  0  0  0
    1.4799   -2.0965    2.9380 H   0  0  0  0  0  0  0  0  0  0  0  0
    3.0288   -1.2623    3.0891 H   0  0  0  0  0  0  0  0  0  0  0  0
    3.3804   -0.0528    0.5941 H   0  0  0  0  0  0  0  0  0  0  0  0
    3.4436   -1.2986   -0.6395 H   0  0  0  0  0  0  0  0  0  0  0  0
    5.0546   -1.2885    1.9811 H   0  0  0  0  0  0  0  0  0  0  0  0
    5.6896   -1.0419    0.3505 H   0  0  0  0  0  0  0  0  0  0  0  0
    5.0920   -3.3533   -0.2911 H   0  0  0  0  0  0  0  0  0  0  0  0
    6.0380   -3.4244    1.1954 H   0  0  0  0  0  0  0  0  0  0  0  0
    4.0084   -3.5914    2.5645 H   0  0  0  0  0  0  0  0  0  0  0  0
    1.7839   -3.7243    1.6860 H   0  0  0  0  0  0  0  0  0  0  0  0
    1.1881   -3.4436   -0.6556 H   0  0  0  0  0  0  0  0  0  0  0  0
    2.8826   -3.3654   -1.1445 H   0  0  0  0  0  0  0  0  0  0  0  0
    1.5009   -5.7699    0.1702 H   0  0  0  0  0  0  0  0  0  0  0  0
    2.0323   -5.6632   -1.5118 H   0  0  0  0  0  0  0  0  0  0  0  0
    4.4086   -5.5066   -0.7861 H   0  0  0  0  0  0  0  0  0  0  0  0
    3.6702   -6.9510   -0.0937 H   0  0  0  0  0  0  0  0  0  0  0  0
    5.0157   -5.7064    1.6295 H   0  0  0  0  0  0  0  0  0  0  0  0
    3.3069   -5.8194    2.0654 H   0  0  0  0  0  0  0  0  0  0  0  0
  1  2  1  0  0  0  0
  2 16  1  0  0  0  0
  2 17  1  0  0  0  0
  2  3  1  0  0  0  0
  3 18  1  0  0  0  0
  4  3  1  0  0  0  0
  4 20  1  0  0  0  0
  4 21  1  0  0  0  0
  5  4  1  0  0  0  0
  6 22  1  0  0  0  0
  6  7  1  0  0  0  0
  6  5  1  0  0  0  0
  7 24  1  0  0  0  0
  8  7  1  0  0  0  0
  8 27  1  0  0  0  0
  8  9  1  0  0  0  0
  9 10  1  6  0  0  0
  9 28  1  0  0  0  0
 10  5  1  0  0  0  0
 10 29  1  1  0  0  0
 11 10  1  0  0  0  0
 12 11  1  0  0  0  0
 12 13  1  0  0  0  0
 12 32  1  0  0  0  0
 13 14  1  0  0  0  0
 14  9  1  0  0  0  0
 14 36  1  0  0  0  0
 14 37  1  0  0  0  0
 15  1  1  0  0  0  0
 19  3  1  0  0  0  0
 23  6  1  0  0  0  0
 25  7  1  0  0  0  0
 26  8  1  0  0  0  0
 30 11  1  0  0  0  0
 31 11  1  0  0  0  0
 33 12  1  0  0  0  0
 34 13  1  0  0  0  0
 35 13  1  0  0  0  0
M  END
