107672983.xyz
 OpenBabel08132112073D
Cn1ncc(c1)CCn1nnnc1S
 24 25  0  0  0  0  0  0  0  0999 V2000
   -8.0105    1.8927    1.7733 C   0  0  0  0  0  0  0  0  0  0  0  0
   -6.6194    1.7087    1.4189 N   0  0  0  0  0  0  0  0  0  0  0  0
   -6.2828    1.4922    0.1401 N   0  0  0  0  0  0  0  0  0  0  0  0
   -4.9548    1.4151    0.1361 C   0  0  0  0  0  0  0  0  0  0  0  0
   -4.4121    1.5923    1.4364 C   0  0  0  0  0  0  0  0  0  0  0  0
   -5.5331    1.7778    2.2361 C   0  0  0  0  0  0  0  0  0  0  0  0
   -2.9761    1.5239    1.8570 C   0  0  0  0  0  0  0  0  0  0  0  0
   -2.5199    0.0771    2.1042 C   0  0  0  0  0  0  0  0  0  0  0  0
   -1.1254   -0.0027    2.5014 N   0  0  0  0  0  0  0  0  0  0  0  0
   -0.7488    0.0130    3.8019 N   0  0  0  0  0  0  0  0  0  0  0  0
    0.5351    0.0073    3.8155 N   0  0  0  0  0  0  0  0  0  0  0  0
    1.0438    0.0000    2.5608 N   0  0  0  0  0  0  0  0  0  0  0  0
   -0.0000    0.0000    1.7518 C   0  0  0  0  0  0  0  0  0  0  0  0
    0.0000    0.0000    0.0000 S   0  0  0  0  0  0  0  0  0  0  0  0
   -8.6084    1.0696    1.3575 H   0  0  0  0  0  0  0  0  0  0  0  0
   -8.3918    2.8446    1.3721 H   0  0  0  0  0  0  0  0  0  0  0  0
   -8.1073    1.8964    2.8668 H   0  0  0  0  0  0  0  0  0  0  0  0
   -4.4198    1.2408   -0.7982 H   0  0  0  0  0  0  0  0  0  0  0  0
   -5.6290    1.9571    3.3053 H   0  0  0  0  0  0  0  0  0  0  0  0
   -2.8106    2.1001    2.7805 H   0  0  0  0  0  0  0  0  0  0  0  0
   -2.3324    1.9699    1.0813 H   0  0  0  0  0  0  0  0  0  0  0  0
   -3.1060   -0.3840    2.9101 H   0  0  0  0  0  0  0  0  0  0  0  0
   -2.6542   -0.5338    1.1984 H   0  0  0  0  0  0  0  0  0  0  0  0
    1.3495   -0.0524   -0.0672 H   0  0  0  0  0  0  0  0  0  0  0  0
  1 17  1  0  0  0  0
  2  1  1  0  0  0  0
  2  6  1  0  0  0  0
  3  2  1  0  0  0  0
  4  3  2  0  0  0  0
  4  5  1  0  0  0  0
  5  7  1  0  0  0  0
  5  6  2  0  0  0  0
  6 19  1  0  0  0  0
  7  8  1  0  0  0  0
  7 20  1  0  0  0  0
  8  9  1  0  0  0  0
  8 22  1  0  0  0  0
  9 10  1  0  0  0  0
 10 11  2  0  0  0  0
 12 11  1  0  0  0  0
 13  9  1  0  0  0  0
 13 12  2  0  0  0  0
 14 13  1  0  0  0  0
 15  1  1  0  0  0  0
 16  1  1  0  0  0  0
 18  4  1  0  0  0  0
 21  7  1  0  0  0  0
 23  8  1  0  0  0  0
 24 14  1  0  0  0  0
M  END
