107658771.xyz
 OpenBabel08132112073D
CCn1c(nnc1S)Cc1cscc1
 25 26  0  0  0  0  0  0  0  0999 V2000
   -2.9692   -1.4318    1.5926 C   0  0  0  0  0  0  0  0  0  0  0  0
   -2.5247   -0.0271    1.9913 C   0  0  0  0  0  0  0  0  0  0  0  0
   -1.1582    0.0190    2.4985 N   0  0  0  0  0  0  0  0  0  0  0  0
   -0.7178    0.0249    3.8086 C   0  0  0  0  0  0  0  0  0  0  0  0
    0.5929    0.0133    3.8386 N   0  0  0  0  0  0  0  0  0  0  0  0
    1.0528    0.0000    2.5429 N   0  0  0  0  0  0  0  0  0  0  0  0
   -0.0000    0.0000    1.7617 C   0  0  0  0  0  0  0  0  0  0  0  0
    0.0000    0.0000    0.0000 S   0  0  0  0  0  0  0  0  0  0  0  0
   -1.6102   -0.0072    5.0079 C   0  0  0  0  0  0  0  0  0  0  0  0
   -2.4093   -1.2860    5.0981 C   0  0  0  0  0  0  0  0  0  0  0  0
   -3.7774   -1.3547    5.2060 C   0  0  0  0  0  0  0  0  0  0  0  0
   -4.3495   -2.9891    5.2161 S   0  0  0  0  0  0  0  0  0  0  0  0
   -2.7348   -3.6006    5.0752 C   0  0  0  0  0  0  0  0  0  0  0  0
   -1.8124   -2.5885    5.0233 C   0  0  0  0  0  0  0  0  0  0  0  0
   -2.3162   -1.8402    0.8065 H   0  0  0  0  0  0  0  0  0  0  0  0
   -3.9983   -1.4024    1.2031 H   0  0  0  0  0  0  0  0  0  0  0  0
   -2.9450   -2.1102    2.4566 H   0  0  0  0  0  0  0  0  0  0  0  0
   -2.5837    0.6617    1.1329 H   0  0  0  0  0  0  0  0  0  0  0  0
   -3.1808    0.3790    2.7731 H   0  0  0  0  0  0  0  0  0  0  0  0
    1.3472    0.0987   -0.0542 H   0  0  0  0  0  0  0  0  0  0  0  0
   -0.9422    0.0951    5.8765 H   0  0  0  0  0  0  0  0  0  0  0  0
   -2.2902    0.8602    5.0174 H   0  0  0  0  0  0  0  0  0  0  0  0
   -4.4819   -0.5267    5.2747 H   0  0  0  0  0  0  0  0  0  0  0  0
   -2.5583   -4.6745    5.0407 H   0  0  0  0  0  0  0  0  0  0  0  0
   -0.7373   -2.7466    4.9251 H   0  0  0  0  0  0  0  0  0  0  0  0
  1  2  1  0  0  0  0
  1 17  1  0  0  0  0
  2  3  1  0  0  0  0
  2 19  1  0  0  0  0
  3  4  1  0  0  0  0
  4  5  2  0  0  0  0
  4  9  1  0  0  0  0
  6  5  1  0  0  0  0
  7  3  1  0  0  0  0
  7  6  2  0  0  0  0
  8  7  1  0  0  0  0
  9 22  1  0  0  0  0
  9 10  1  0  0  0  0
  9 21  1  0  0  0  0
 10 11  2  0  0  0  0
 11 12  1  0  0  0  0
 11 23  1  0  0  0  0
 13 12  1  0  0  0  0
 14 13  2  0  0  0  0
 14 10  1  0  0  0  0
 15  1  1  0  0  0  0
 16  1  1  0  0  0  0
 18  2  1  0  0  0  0
 20  8  1  0  0  0  0
 24 13  1  0  0  0  0
 25 14  1  0  0  0  0
M  END
