107820512.xyz
 OpenBabel08132112083D
Cc1onc(n1)Cn1c(N)nnc1S
 22 23  0  0  0  0  0  0  0  0999 V2000
    4.2537    4.4692    0.9333 C   0  0  0  0  0  0  0  0  0  0  0  0
    3.8742    3.1866    1.5750 C   0  0  0  0  0  0  0  0  0  0  0  0
    4.1191    3.0285    2.8874 O   0  0  0  0  0  0  0  0  0  0  0  0
    3.6824    1.7591    3.2329 N   0  0  0  0  0  0  0  0  0  0  0  0
    3.2150    1.2755    2.1086 C   0  0  0  0  0  0  0  0  0  0  0  0
    3.3158    2.1357    1.0451 N   0  0  0  0  0  0  0  0  0  0  0  0
    2.5505   -0.0699    2.0520 C   0  0  0  0  0  0  0  0  0  0  0  0
    1.1736   -0.0000    2.4964 N   0  0  0  0  0  0  0  0  0  0  0  0
    0.7446    0.0444    3.8093 C   0  0  0  0  0  0  0  0  0  0  0  0
    1.6379   -0.0016    4.8583 N   0  0  0  0  0  0  0  0  0  0  0  0
   -0.5629    0.0454    3.8625 N   0  0  0  0  0  0  0  0  0  0  0  0
   -1.0328    0.0138    2.5586 N   0  0  0  0  0  0  0  0  0  0  0  0
    0.0000    0.0000    1.7639 C   0  0  0  0  0  0  0  0  0  0  0  0
    0.0000    0.0000    0.0000 S   0  0  0  0  0  0  0  0  0  0  0  0
    3.9846    4.4325   -0.1287 H   0  0  0  0  0  0  0  0  0  0  0  0
    5.3358    4.6458    1.0337 H   0  0  0  0  0  0  0  0  0  0  0  0
    3.7314    5.3096    1.4159 H   0  0  0  0  0  0  0  0  0  0  0  0
    3.0874   -0.7724    2.7065 H   0  0  0  0  0  0  0  0  0  0  0  0
    2.5748   -0.4470    1.0216 H   0  0  0  0  0  0  0  0  0  0  0  0
    2.3956    0.6807    4.7980 H   0  0  0  0  0  0  0  0  0  0  0  0
    1.1591    0.0357    5.7536 H   0  0  0  0  0  0  0  0  0  0  0  0
   -1.3032   -0.3537   -0.0584 H   0  0  0  0  0  0  0  0  0  0  0  0
  1 16  1  0  0  0  0
  1 17  1  0  0  0  0
  1  2  1  0  0  0  0
  2  3  1  0  0  0  0
  3  4  1  0  0  0  0
  5  4  2  0  0  0  0
  6  2  2  0  0  0  0
  6  5  2  0  0  0  0
  7  5  1  0  0  0  0
  7  8  1  0  0  0  0
  7 18  1  0  0  0  0
  8  9  1  0  0  0  0
  9 11  2  0  0  0  0
  9 10  1  0  0  0  0
 10 21  1  0  0  0  0
 12 11  1  0  0  0  0
 13  8  1  0  0  0  0
 13 12  2  0  0  0  0
 14 13  1  0  0  0  0
 15  1  1  0  0  0  0
 19  7  1  0  0  0  0
 20 10  1  0  0  0  0
 22 14  1  0  0  0  0
M  END
