107890557.xyz
 OpenBabel08132112083D
CCc1c(C#N)ccc(c1OC)S
 24 24  0  0  0  0  0  0  0  0999 V2000
   -2.8463    1.2726    5.3435 C   0  0  0  0  0  0  0  0  0  0  0  0
   -2.4906   -0.0730    4.6930 C   0  0  0  0  0  0  0  0  0  0  0  0
   -1.1991   -0.0448    3.9112 C   0  0  0  0  0  0  0  0  0  0  0  0
    0.0540   -0.0506    4.5693 C   0  0  0  0  0  0  0  0  0  0  0  0
    0.1061   -0.1086    6.0008 C   0  0  0  0  0  0  0  0  0  0  0  0
    0.1419   -0.1528    7.1611 N   0  0  0  0  0  0  0  0  0  0  0  0
    1.2540   -0.0166    3.8387 C   0  0  0  0  0  0  0  0  0  0  0  0
    1.2266   -0.0000    2.4505 C   0  0  0  0  0  0  0  0  0  0  0  0
    0.0000    0.0000    1.7711 C   0  0  0  0  0  0  0  0  0  0  0  0
   -1.2047    0.0006    2.5084 C   0  0  0  0  0  0  0  0  0  0  0  0
   -2.3985   -0.0140    1.8303 O   0  0  0  0  0  0  0  0  0  0  0  0
   -2.9242    1.2684    1.4967 C   0  0  0  0  0  0  0  0  0  0  0  0
    0.0000    0.0000    0.0000 S   0  0  0  0  0  0  0  0  0  0  0  0
   -3.8013    1.1961    5.8858 H   0  0  0  0  0  0  0  0  0  0  0  0
   -2.0761    1.5842    6.0644 H   0  0  0  0  0  0  0  0  0  0  0  0
   -2.9463    2.0705    4.5913 H   0  0  0  0  0  0  0  0  0  0  0  0
   -2.4057   -0.8354    5.4840 H   0  0  0  0  0  0  0  0  0  0  0  0
   -3.2986   -0.3935    4.0213 H   0  0  0  0  0  0  0  0  0  0  0  0
    2.2065   -0.0238    4.3706 H   0  0  0  0  0  0  0  0  0  0  0  0
    2.1592   -0.0057    1.8829 H   0  0  0  0  0  0  0  0  0  0  0  0
   -3.8493    1.0956    0.9305 H   0  0  0  0  0  0  0  0  0  0  0  0
   -3.1577    1.8499    2.4033 H   0  0  0  0  0  0  0  0  0  0  0  0
   -2.2152    1.8402    0.8745 H   0  0  0  0  0  0  0  0  0  0  0  0
   -1.2858   -0.4035   -0.1142 H   0  0  0  0  0  0  0  0  0  0  0  0
  1 14  1  0  0  0  0
  1 15  1  0  0  0  0
  2  1  1  0  0  0  0
  2 17  1  0  0  0  0
  3  4  1  0  0  0  0
  3  2  1  0  0  0  0
  4  5  1  0  0  0  0
  5  6  3  0  0  0  0
  7 19  1  0  0  0  0
  7  4  2  0  0  0  0
  8  7  1  0  0  0  0
  9  8  2  0  0  0  0
  9 10  1  0  0  0  0
 10  3  2  0  0  0  0
 11 10  1  0  0  0  0
 12 11  1  0  0  0  0
 12 22  1  0  0  0  0
 13  9  1  0  0  0  0
 16  1  1  0  0  0  0
 18  2  1  0  0  0  0
 20  8  1  0  0  0  0
 21 12  1  0  0  0  0
 23 12  1  0  0  0  0
 24 13  1  0  0  0  0
M  END
