107879040.xyz
 OpenBabel08132112083D
CCOc1c(C#N)cc(cc1C(=O)O)S
 24 24  0  0  0  0  0  0  0  0999 V2000
   -0.4930   -0.7932    8.1511 C   0  0  0  0  0  0  0  0  0  0  0  0
   -0.3836   -1.1411    6.6847 C   0  0  0  0  0  0  0  0  0  0  0  0
   -0.2185    0.0877    5.9563 O   0  0  0  0  0  0  0  0  0  0  0  0
   -0.1092    0.0059    4.6141 C   0  0  0  0  0  0  0  0  0  0  0  0
   -1.2908    0.0102    3.8341 C   0  0  0  0  0  0  0  0  0  0  0  0
   -2.5584    0.0359    4.5050 C   0  0  0  0  0  0  0  0  0  0  0  0
   -3.5878    0.0422    5.0409 N   0  0  0  0  0  0  0  0  0  0  0  0
   -1.2373    0.0048    2.4346 C   0  0  0  0  0  0  0  0  0  0  0  0
   -0.0000    0.0000    1.7765 C   0  0  0  0  0  0  0  0  0  0  0  0
    1.1679    0.0000    2.5439 C   0  0  0  0  0  0  0  0  0  0  0  0
    1.1321   -0.0104    3.9470 C   0  0  0  0  0  0  0  0  0  0  0  0
    2.4699   -0.0090    4.6199 C   0  0  0  0  0  0  0  0  0  0  0  0
    3.5076    0.1678    4.0244 O   0  0  0  0  0  0  0  0  0  0  0  0
    2.4398   -0.2520    5.9411 O   0  0  0  0  0  0  0  0  0  0  0  0
    0.0000    0.0000    0.0000 S   0  0  0  0  0  0  0  0  0  0  0  0
   -1.3580   -0.1362    8.3263 H   0  0  0  0  0  0  0  0  0  0  0  0
    0.4164   -0.2732    8.4876 H   0  0  0  0  0  0  0  0  0  0  0  0
   -0.6199   -1.7081    8.7498 H   0  0  0  0  0  0  0  0  0  0  0  0
    0.4872   -1.7884    6.4888 H   0  0  0  0  0  0  0  0  0  0  0  0
   -1.2929   -1.6550    6.3268 H   0  0  0  0  0  0  0  0  0  0  0  0
   -2.1699    0.0132    1.8675 H   0  0  0  0  0  0  0  0  0  0  0  0
    2.1532    0.0090    2.0753 H   0  0  0  0  0  0  0  0  0  0  0  0
    3.3658   -0.2290    6.2385 H   0  0  0  0  0  0  0  0  0  0  0  0
    1.3423    0.0258   -0.1506 H   0  0  0  0  0  0  0  0  0  0  0  0
  1 16  1  0  0  0  0
  1 17  1  0  0  0  0
  1 18  1  0  0  0  0
  2  1  1  0  0  0  0
  3  2  1  0  0  0  0
  4  3  1  0  0  0  0
  5  6  1  0  0  0  0
  5  4  2  0  0  0  0
  6  7  3  0  0  0  0
  8  5  1  0  0  0  0
  9  8  2  0  0  0  0
  9 10  1  0  0  0  0
 10 11  2  0  0  0  0
 11  4  1  0  0  0  0
 11 12  1  0  0  0  0
 12 14  1  0  0  0  0
 13 12  2  0  0  0  0
 14 23  1  0  0  0  0
 15  9  1  0  0  0  0
 19  2  1  0  0  0  0
 20  2  1  0  0  0  0
 21  8  1  0  0  0  0
 22 10  1  0  0  0  0
 24 15  1  0  0  0  0
M  END
