107878992.xyz
 OpenBabel08132112083D
CCOc1c(S)cc(cc1C(=O)N)C#N
 25 25  0  0  0  0  0  0  0  0999 V2000
    4.4258    0.9793    1.0981 C   0  0  0  0  0  0  0  0  0  0  0  0
    3.0080    1.2463    1.5445 C   0  0  0  0  0  0  0  0  0  0  0  0
    2.3898   -0.0329    1.8288 O   0  0  0  0  0  0  0  0  0  0  0  0
    1.2133   -0.0000    2.5004 C   0  0  0  0  0  0  0  0  0  0  0  0
   -0.0000   -0.0000    1.7727 C   0  0  0  0  0  0  0  0  0  0  0  0
    0.0000    0.0000    0.0000 S   0  0  0  0  0  0  0  0  0  0  0  0
   -1.2195   -0.0014    2.4556 C   0  0  0  0  0  0  0  0  0  0  0  0
   -1.2446   -0.0122    3.8589 C   0  0  0  0  0  0  0  0  0  0  0  0
   -0.0411   -0.0512    4.5803 C   0  0  0  0  0  0  0  0  0  0  0  0
    1.1849   -0.0451    3.9083 C   0  0  0  0  0  0  0  0  0  0  0  0
    2.4742   -0.0642    4.6944 C   0  0  0  0  0  0  0  0  0  0  0  0
    3.4091    0.6812    4.4599 O   0  0  0  0  0  0  0  0  0  0  0  0
    2.4898   -0.9613    5.7219 N   0  0  0  0  0  0  0  0  0  0  0  0
   -2.4989   -0.0038    4.5556 C   0  0  0  0  0  0  0  0  0  0  0  0
   -3.5108   -0.0007    5.1245 N   0  0  0  0  0  0  0  0  0  0  0  0
    4.9250    1.9269    0.8435 H   0  0  0  0  0  0  0  0  0  0  0  0
    4.4480    0.3263    0.2114 H   0  0  0  0  0  0  0  0  0  0  0  0
    4.9862    0.4941    1.9104 H   0  0  0  0  0  0  0  0  0  0  0  0
    2.4161    1.7552    0.7633 H   0  0  0  0  0  0  0  0  0  0  0  0
    2.9951    1.8465    2.4641 H   0  0  0  0  0  0  0  0  0  0  0  0
    1.2957   -0.3749   -0.1016 H   0  0  0  0  0  0  0  0  0  0  0  0
   -2.1576   -0.0027    1.8984 H   0  0  0  0  0  0  0  0  0  0  0  0
   -0.0658   -0.0649    5.6706 H   0  0  0  0  0  0  0  0  0  0  0  0
    1.7937   -1.6903    5.8035 H   0  0  0  0  0  0  0  0  0  0  0  0
    3.3391   -1.0322    6.2712 H   0  0  0  0  0  0  0  0  0  0  0  0
  1  2  1  0  0  0  0
  1 18  1  0  0  0  0
  2  3  1  0  0  0  0
  2 20  1  0  0  0  0
  3  4  1  0  0  0  0
  4 10  2  0  0  0  0
  5  7  2  0  0  0  0
  5  4  1  0  0  0  0
  6  5  1  0  0  0  0
  7  8  1  0  0  0  0
  8 14  1  0  0  0  0
  8  9  2  0  0  0  0
  9 23  1  0  0  0  0
 10  9  1  0  0  0  0
 10 11  1  0  0  0  0
 11 13  1  0  0  0  0
 12 11  2  0  0  0  0
 13 24  1  0  0  0  0
 13 25  1  0  0  0  0
 14 15  3  0  0  0  0
 16  1  1  0  0  0  0
 17  1  1  0  0  0  0
 19  2  1  0  0  0  0
 21  6  1  0  0  0  0
 22  7  1  0  0  0  0
M  END
