107884184.xyz
 OpenBabel08132112083D
CCc1cc(OC(F)(F)F)c(cc1S)C#N
 24 24  0  0  0  0  0  0  0  0999 V2000
   -3.7428   -0.3683    2.7761 C   0  0  0  0  0  0  0  0  0  0  0  0
   -2.5376   -0.1014    1.8802 C   0  0  0  0  0  0  0  0  0  0  0  0
   -1.1863   -0.0807    2.5552 C   0  0  0  0  0  0  0  0  0  0  0  0
   -1.0779   -0.1437    3.9504 C   0  0  0  0  0  0  0  0  0  0  0  0
    0.1664   -0.1525    4.5778 C   0  0  0  0  0  0  0  0  0  0  0  0
    0.3556   -0.2236    5.9417 O   0  0  0  0  0  0  0  0  0  0  0  0
   -0.6751   -0.2874    6.8184 C   0  0  0  0  0  0  0  0  0  0  0  0
   -1.4757    0.7851    6.7355 F   0  0  0  0  0  0  0  0  0  0  0  0
   -1.4388   -1.3720    6.6219 F   0  0  0  0  0  0  0  0  0  0  0  0
   -0.1624   -0.3426    8.0337 F   0  0  0  0  0  0  0  0  0  0  0  0
    1.3468   -0.0866    3.8176 C   0  0  0  0  0  0  0  0  0  0  0  0
    1.2436   -0.0000    2.4205 C   0  0  0  0  0  0  0  0  0  0  0  0
    0.0000   -0.0000    1.7871 C   0  0  0  0  0  0  0  0  0  0  0  0
    0.0000    0.0000    0.0000 S   0  0  0  0  0  0  0  0  0  0  0  0
    2.6311   -0.0922    4.4506 C   0  0  0  0  0  0  0  0  0  0  0  0
    3.6857   -0.0952    4.9348 N   0  0  0  0  0  0  0  0  0  0  0  0
   -3.8754    0.4182    3.5355 H   0  0  0  0  0  0  0  0  0  0  0  0
   -4.6625   -0.4002    2.1736 H   0  0  0  0  0  0  0  0  0  0  0  0
   -3.6534   -1.3333    3.2993 H   0  0  0  0  0  0  0  0  0  0  0  0
   -2.6797    0.8648    1.3599 H   0  0  0  0  0  0  0  0  0  0  0  0
   -2.4900   -0.8492    1.0694 H   0  0  0  0  0  0  0  0  0  0  0  0
   -1.9831   -0.2011    4.5473 H   0  0  0  0  0  0  0  0  0  0  0  0
    2.1562    0.0738    1.8279 H   0  0  0  0  0  0  0  0  0  0  0  0
   -0.9813    0.9144   -0.1772 H   0  0  0  0  0  0  0  0  0  0  0  0
  1 19  1  0  0  0  0
  1 17  1  0  0  0  0
  2  3  1  0  0  0  0
  2  1  1  0  0  0  0
  3  4  2  0  0  0  0
  4 22  1  0  0  0  0
  4  5  1  0  0  0  0
  5  6  1  0  0  0  0
  6  7  1  0  0  0  0
  7 10  1  0  0  0  0
  8  7  1  0  0  0  0
  9  7  1  0  0  0  0
 11 15  1  0  0  0  0
 11  5  2  0  0  0  0
 12 11  1  0  0  0  0
 13 12  2  0  0  0  0
 13  3  1  0  0  0  0
 14 13  1  0  0  0  0
 15 16  3  0  0  0  0
 18  1  1  0  0  0  0
 20  2  1  0  0  0  0
 21  2  1  0  0  0  0
 23 12  1  0  0  0  0
 24 14  1  0  0  0  0
M  END
