107926769.xyz
 OpenBabel08132112083D
CCOc1c(ccc(c1OC(F)F)S)CC(=O)O
 30 30  0  0  0  0  0  0  0  0999 V2000
   -4.2223    0.8915    5.6746 C   0  0  0  0  0  0  0  0  0  0  0  0
   -3.0301    1.1691    4.7870 C   0  0  0  0  0  0  0  0  0  0  0  0
   -2.3082   -0.0648    4.6376 O   0  0  0  0  0  0  0  0  0  0  0  0
   -1.1432   -0.0079    3.9256 C   0  0  0  0  0  0  0  0  0  0  0  0
    0.0799   -0.0264    4.6098 C   0  0  0  0  0  0  0  0  0  0  0  0
    1.2563   -0.0226    3.8539 C   0  0  0  0  0  0  0  0  0  0  0  0
    1.2229   -0.0000    2.4600 C   0  0  0  0  0  0  0  0  0  0  0  0
    0.0000   -0.0000    1.7710 C   0  0  0  0  0  0  0  0  0  0  0  0
   -1.1845   -0.0064    2.5253 C   0  0  0  0  0  0  0  0  0  0  0  0
   -2.4052    0.0314    1.8775 O   0  0  0  0  0  0  0  0  0  0  0  0
   -3.2799   -1.0127    2.0705 C   0  0  0  0  0  0  0  0  0  0  0  0
   -3.4889   -1.6192    0.8821 F   0  0  0  0  0  0  0  0  0  0  0  0
   -4.4658   -0.5114    2.4705 F   0  0  0  0  0  0  0  0  0  0  0  0
    0.0000    0.0000    0.0000 S   0  0  0  0  0  0  0  0  0  0  0  0
    0.0609   -0.0399    6.1163 C   0  0  0  0  0  0  0  0  0  0  0  0
   -0.7758   -1.1790    6.6755 C   0  0  0  0  0  0  0  0  0  0  0  0
   -0.7842   -2.3067    6.2569 O   0  0  0  0  0  0  0  0  0  0  0  0
   -1.4966   -0.7906    7.7491 O   0  0  0  0  0  0  0  0  0  0  0  0
   -3.8874    0.5047    6.6488 H   0  0  0  0  0  0  0  0  0  0  0  0
   -4.8780    0.1453    5.2017 H   0  0  0  0  0  0  0  0  0  0  0  0
   -4.8013    1.8132    5.8379 H   0  0  0  0  0  0  0  0  0  0  0  0
   -2.3591    1.9241    5.2346 H   0  0  0  0  0  0  0  0  0  0  0  0
   -3.3413    1.5329    3.7941 H   0  0  0  0  0  0  0  0  0  0  0  0
    2.2216   -0.0415    4.3654 H   0  0  0  0  0  0  0  0  0  0  0  0
    2.1556    0.0006    1.8924 H   0  0  0  0  0  0  0  0  0  0  0  0
   -2.9146   -1.7459    2.8052 H   0  0  0  0  0  0  0  0  0  0  0  0
   -1.3431   -0.0484   -0.1356 H   0  0  0  0  0  0  0  0  0  0  0  0
    1.0851   -0.1726    6.4999 H   0  0  0  0  0  0  0  0  0  0  0  0
   -0.3157    0.9086    6.5277 H   0  0  0  0  0  0  0  0  0  0  0  0
   -1.9775   -1.5786    8.0563 H   0  0  0  0  0  0  0  0  0  0  0  0
  1 21  1  0  0  0  0
  1 19  1  0  0  0  0
  2 22  1  0  0  0  0
  2  1  1  0  0  0  0
  3  2  1  0  0  0  0
  4  5  1  0  0  0  0
  4  3  1  0  0  0  0
  5 15  1  0  0  0  0
  6 24  1  0  0  0  0
  6  5  2  0  0  0  0
  7  6  1  0  0  0  0
  8  7  2  0  0  0  0
  8  9  1  0  0  0  0
  9  4  2  0  0  0  0
 10 11  1  0  0  0  0
 10  9  1  0  0  0  0
 11 13  1  0  0  0  0
 11 26  1  0  0  0  0
 12 11  1  0  0  0  0
 14  8  1  0  0  0  0
 15 28  1  0  0  0  0
 15 29  1  0  0  0  0
 15 16  1  0  0  0  0
 16 18  1  0  0  0  0
 17 16  2  0  0  0  0
 18 30  1  0  0  0  0
 20  1  1  0  0  0  0
 23  2  1  0  0  0  0
 25  7  1  0  0  0  0
 27 14  1  0  0  0  0
M  END
