107901280.xyz
 OpenBabel08132112083D
N#CCc1cc(C)cc(c1S)C#N
 21 21  0  0  0  0  0  0  0  0999 V2000
   -3.1743    2.3720    0.7230 N   0  0  0  0  0  0  0  0  0  0  0  0
   -2.8979    1.3240    1.1306 C   0  0  0  0  0  0  0  0  0  0  0  0
   -2.5441    0.0036    1.6654 C   0  0  0  0  0  0  0  0  0  0  0  0
   -1.2405    0.0078    2.4439 C   0  0  0  0  0  0  0  0  0  0  0  0
   -1.2708    0.0281    3.8382 C   0  0  0  0  0  0  0  0  0  0  0  0
   -0.1061    0.0340    4.6216 C   0  0  0  0  0  0  0  0  0  0  0  0
   -0.1889    0.0621    6.1255 C   0  0  0  0  0  0  0  0  0  0  0  0
    1.1170    0.0158    3.9541 C   0  0  0  0  0  0  0  0  0  0  0  0
    1.1822   -0.0000    2.5490 C   0  0  0  0  0  0  0  0  0  0  0  0
   -0.0000    0.0000    1.7704 C   0  0  0  0  0  0  0  0  0  0  0  0
    0.0000    0.0000    0.0000 S   0  0  0  0  0  0  0  0  0  0  0  0
    2.4651   -0.0236    1.9134 C   0  0  0  0  0  0  0  0  0  0  0  0
    3.4960   -0.0490    1.3780 N   0  0  0  0  0  0  0  0  0  0  0  0
   -3.3666   -0.3322    2.3155 H   0  0  0  0  0  0  0  0  0  0  0  0
   -2.4911   -0.7079    0.8236 H   0  0  0  0  0  0  0  0  0  0  0  0
   -2.2445    0.0378    4.3368 H   0  0  0  0  0  0  0  0  0  0  0  0
   -0.7800   -0.7856    6.5082 H   0  0  0  0  0  0  0  0  0  0  0  0
    0.8086    0.0143    6.5848 H   0  0  0  0  0  0  0  0  0  0  0  0
   -0.6789    0.9846    6.4779 H   0  0  0  0  0  0  0  0  0  0  0  0
    2.0515    0.0141    4.5184 H   0  0  0  0  0  0  0  0  0  0  0  0
    1.3364   -0.1375   -0.1536 H   0  0  0  0  0  0  0  0  0  0  0  0
  1  2  3  0  0  0  0
  2  3  1  0  0  0  0
  3 14  1  0  0  0  0
  3  4  1  0  0  0  0
  4  5  1  0  0  0  0
  5 16  1  0  0  0  0
  5  6  2  0  0  0  0
  6  7  1  0  0  0  0
  7 19  1  0  0  0  0
  7 17  1  0  0  0  0
  7 18  1  0  0  0  0
  8 20  1  0  0  0  0
  8  6  1  0  0  0  0
  9  8  2  0  0  0  0
 10  4  2  0  0  0  0
 10  9  1  0  0  0  0
 11 10  1  0  0  0  0
 12  9  1  0  0  0  0
 13 12  3  0  0  0  0
 15  3  1  0  0  0  0
 21 11  1  0  0  0  0
M  END
