107900933.xyz
 OpenBabel08132112083D
N#CCc1cc(S)c(cc1OC)C#N
 22 22  0  0  0  0  0  0  0  0999 V2000
    3.2239   -2.3010    5.6530 N   0  0  0  0  0  0  0  0  0  0  0  0
    2.9971   -1.2849    5.1463 C   0  0  0  0  0  0  0  0  0  0  0  0
    2.7048   -0.0040    4.4921 C   0  0  0  0  0  0  0  0  0  0  0  0
    1.3557    0.0033    3.8035 C   0  0  0  0  0  0  0  0  0  0  0  0
    1.2479    0.0000    2.4191 C   0  0  0  0  0  0  0  0  0  0  0  0
   -0.0000    0.0000    1.7699 C   0  0  0  0  0  0  0  0  0  0  0  0
    0.0000    0.0000    0.0000 S   0  0  0  0  0  0  0  0  0  0  0  0
   -1.1603   -0.0008    2.5727 C   0  0  0  0  0  0  0  0  0  0  0  0
   -1.0628    0.0005    3.9805 C   0  0  0  0  0  0  0  0  0  0  0  0
    0.1851    0.0039    4.5975 C   0  0  0  0  0  0  0  0  0  0  0  0
    0.3866    0.0107    5.9344 O   0  0  0  0  0  0  0  0  0  0  0  0
   -0.7250   -0.0799    6.8021 C   0  0  0  0  0  0  0  0  0  0  0  0
   -2.4589   -0.0007    1.9705 C   0  0  0  0  0  0  0  0  0  0  0  0
   -3.5030    0.0006    1.4607 N   0  0  0  0  0  0  0  0  0  0  0  0
    2.7380    0.7821    5.2637 H   0  0  0  0  0  0  0  0  0  0  0  0
    3.5039    0.2065    3.7654 H   0  0  0  0  0  0  0  0  0  0  0  0
    2.1595   -0.0055    1.8168 H   0  0  0  0  0  0  0  0  0  0  0  0
   -1.3424   -0.0131   -0.1633 H   0  0  0  0  0  0  0  0  0  0  0  0
   -1.9823   -0.0001    4.5629 H   0  0  0  0  0  0  0  0  0  0  0  0
   -1.3946    0.7914    6.6942 H   0  0  0  0  0  0  0  0  0  0  0  0
   -1.3008   -1.0037    6.6208 H   0  0  0  0  0  0  0  0  0  0  0  0
   -0.3217   -0.1011    7.8221 H   0  0  0  0  0  0  0  0  0  0  0  0
  2  1  3  0  0  0  0
  3  2  1  0  0  0  0
  3 15  1  0  0  0  0
  4  3  1  0  0  0  0
  4 10  2  0  0  0  0
  5  4  1  0  0  0  0
  6  5  2  0  0  0  0
  6  8  1  0  0  0  0
  7  6  1  0  0  0  0
  8  9  2  0  0  0  0
  9 19  1  0  0  0  0
  9 10  1  0  0  0  0
 10 11  1  0  0  0  0
 11 12  1  0  0  0  0
 12 22  1  0  0  0  0
 13  8  1  0  0  0  0
 14 13  3  0  0  0  0
 16  3  1  0  0  0  0
 17  5  1  0  0  0  0
 18  7  1  0  0  0  0
 20 12  1  0  0  0  0
 21 12  1  0  0  0  0
M  END
