107939359.xyz
 OpenBabel08132112083D
CCc1cc(OC(F)F)c(c(c1)C(=O)C)S
 28 28  0  0  0  0  0  0  0  0999 V2000
    0.3489    1.4609    6.6772 C   0  0  0  0  0  0  0  0  0  0  0  0
    0.2630    0.0255    6.1408 C   0  0  0  0  0  0  0  0  0  0  0  0
    0.1749   -0.0244    4.6343 C   0  0  0  0  0  0  0  0  0  0  0  0
    1.3330    0.0020    3.8457 C   0  0  0  0  0  0  0  0  0  0  0  0
    1.2424    0.0000    2.4585 C   0  0  0  0  0  0  0  0  0  0  0  0
    2.3941    0.0294    1.6864 O   0  0  0  0  0  0  0  0  0  0  0  0
    3.3836   -0.8785    1.9561 C   0  0  0  0  0  0  0  0  0  0  0  0
    4.2476   -0.3814    2.8744 F   0  0  0  0  0  0  0  0  0  0  0  0
    4.0673   -1.0668    0.8199 F   0  0  0  0  0  0  0  0  0  0  0  0
    0.0000    0.0000    1.7803 C   0  0  0  0  0  0  0  0  0  0  0  0
   -1.1749   -0.0111    2.5744 C   0  0  0  0  0  0  0  0  0  0  0  0
   -1.0508   -0.0288    3.9766 C   0  0  0  0  0  0  0  0  0  0  0  0
   -2.6105   -0.0167    2.0847 C   0  0  0  0  0  0  0  0  0  0  0  0
   -3.5124   -0.0660    2.8997 O   0  0  0  0  0  0  0  0  0  0  0  0
   -2.9424    0.0428    0.6120 C   0  0  0  0  0  0  0  0  0  0  0  0
    0.0000    0.0000    0.0000 S   0  0  0  0  0  0  0  0  0  0  0  0
    0.4131    1.4707    7.7767 H   0  0  0  0  0  0  0  0  0  0  0  0
   -0.5372    2.0438    6.3804 H   0  0  0  0  0  0  0  0  0  0  0  0
    1.2358    1.9794    6.2791 H   0  0  0  0  0  0  0  0  0  0  0  0
   -0.6188   -0.4759    6.5709 H   0  0  0  0  0  0  0  0  0  0  0  0
    1.1450   -0.5454    6.4758 H   0  0  0  0  0  0  0  0  0  0  0  0
    2.3207    0.0360    4.3090 H   0  0  0  0  0  0  0  0  0  0  0  0
    2.9853   -1.8380    2.3312 H   0  0  0  0  0  0  0  0  0  0  0  0
   -1.9838   -0.0446    4.5421 H   0  0  0  0  0  0  0  0  0  0  0  0
   -2.5089    0.9371    0.1386 H   0  0  0  0  0  0  0  0  0  0  0  0
   -4.0349    0.0616    0.5133 H   0  0  0  0  0  0  0  0  0  0  0  0
   -2.5401   -0.8333    0.0794 H   0  0  0  0  0  0  0  0  0  0  0  0
    1.3446    0.0589   -0.1078 H   0  0  0  0  0  0  0  0  0  0  0  0
  1 17  1  0  0  0  0
  2 21  1  0  0  0  0
  2 20  1  0  0  0  0
  2  1  1  0  0  0  0
  3  2  1  0  0  0  0
  4 22  1  0  0  0  0
  4  3  2  0  0  0  0
  5  4  1  0  0  0  0
  6  7  1  0  0  0  0
  6  5  1  0  0  0  0
  7 23  1  0  0  0  0
  7  8  1  0  0  0  0
  9  7  1  0  0  0  0
 10  5  2  0  0  0  0
 10 11  1  0  0  0  0
 11 12  2  0  0  0  0
 12 24  1  0  0  0  0
 12  3  1  0  0  0  0
 13 11  1  0  0  0  0
 13 14  2  0  0  0  0
 15 13  1  0  0  0  0
 16 10  1  0  0  0  0
 18  1  1  0  0  0  0
 19  1  1  0  0  0  0
 25 15  1  0  0  0  0
 26 15  1  0  0  0  0
 27 15  1  0  0  0  0
 28 16  1  0  0  0  0
M  END
