107966592.xyz
 OpenBabel08132112083D
FC(Oc1cc(S)cc(c1C)CC(=O)O)F
 26 26  0  0  0  0  0  0  0  0999 V2000
    4.2189   -0.0548    3.0549 F   0  0  0  0  0  0  0  0  0  0  0  0
    3.5280   -0.7476    3.9985 C   0  0  0  0  0  0  0  0  0  0  0  0
    2.4960   -0.0001    4.4893 O   0  0  0  0  0  0  0  0  0  0  0  0
    1.2854   -0.0064    3.8213 C   0  0  0  0  0  0  0  0  0  0  0  0
    1.2411   -0.0000    2.4258 C   0  0  0  0  0  0  0  0  0  0  0  0
    0.0000   -0.0000    1.7770 C   0  0  0  0  0  0  0  0  0  0  0  0
    0.0000    0.0000    0.0000 S   0  0  0  0  0  0  0  0  0  0  0  0
   -1.1688    0.0167    2.5452 C   0  0  0  0  0  0  0  0  0  0  0  0
   -1.1109    0.0265    3.9431 C   0  0  0  0  0  0  0  0  0  0  0  0
    0.1260    0.0104    4.6158 C   0  0  0  0  0  0  0  0  0  0  0  0
    0.2157   -0.0089    6.1184 C   0  0  0  0  0  0  0  0  0  0  0  0
   -2.4018    0.0247    4.7203 C   0  0  0  0  0  0  0  0  0  0  0  0
   -2.7752   -1.3394    5.3078 C   0  0  0  0  0  0  0  0  0  0  0  0
   -2.0614   -2.3009    5.3214 O   0  0  0  0  0  0  0  0  0  0  0  0
   -4.0105   -1.3914    5.8583 O   0  0  0  0  0  0  0  0  0  0  0  0
    4.3666   -0.9828    5.0146 F   0  0  0  0  0  0  0  0  0  0  0  0
    3.1877   -1.6989    3.5508 H   0  0  0  0  0  0  0  0  0  0  0  0
    2.1678    0.0306    1.8527 H   0  0  0  0  0  0  0  0  0  0  0  0
   -1.3416   -0.0358   -0.1558 H   0  0  0  0  0  0  0  0  0  0  0  0
   -2.1444    0.0229    2.0535 H   0  0  0  0  0  0  0  0  0  0  0  0
   -0.3065    0.8549    6.5632 H   0  0  0  0  0  0  0  0  0  0  0  0
   -0.2498   -0.9220    6.5198 H   0  0  0  0  0  0  0  0  0  0  0  0
    1.2587    0.0227    6.4523 H   0  0  0  0  0  0  0  0  0  0  0  0
   -3.2314    0.3612    4.0763 H   0  0  0  0  0  0  0  0  0  0  0  0
   -2.3585    0.7361    5.5636 H   0  0  0  0  0  0  0  0  0  0  0  0
   -4.4640   -0.5415    5.7651 H   0  0  0  0  0  0  0  0  0  0  0  0
  1  2  1  0  0  0  0
  2  3  1  0  0  0  0
  2 16  1  0  0  0  0
  4  3  1  0  0  0  0
  4 10  2  0  0  0  0
  5  4  1  0  0  0  0
  6  5  2  0  0  0  0
  6  8  1  0  0  0  0
  7  6  1  0  0  0  0
  8  9  2  0  0  0  0
  9 10  1  0  0  0  0
  9 12  1  0  0  0  0
 10 11  1  0  0  0  0
 11 23  1  0  0  0  0
 11 22  1  0  0  0  0
 11 21  1  0  0  0  0
 12 13  1  0  0  0  0
 12 25  1  0  0  0  0
 13 14  2  0  0  0  0
 13 15  1  0  0  0  0
 17  2  1  0  0  0  0
 18  5  1  0  0  0  0
 19  7  1  0  0  0  0
 20  8  1  0  0  0  0
 24 12  1  0  0  0  0
 26 15  1  0  0  0  0
M  END
