107900689.xyz
 OpenBabel08132112083D
COc1cc(C(=O)N)c(cc1S)C#N
 22 22  0  0  0  0  0  0  0  0999 V2000
   -3.5909   -0.0464    2.5051 C   0  0  0  0  0  0  0  0  0  0  0  0
   -2.3556   -0.0243    1.8194 O   0  0  0  0  0  0  0  0  0  0  0  0
   -1.1996   -0.0059    2.5228 C   0  0  0  0  0  0  0  0  0  0  0  0
   -1.1369    0.0003    3.9188 C   0  0  0  0  0  0  0  0  0  0  0  0
    0.0887   -0.0016    4.5986 C   0  0  0  0  0  0  0  0  0  0  0  0
    0.1298   -0.0501    6.1016 C   0  0  0  0  0  0  0  0  0  0  0  0
    0.9997   -0.6437    6.7072 O   0  0  0  0  0  0  0  0  0  0  0  0
   -0.9108    0.5868    6.7333 N   0  0  0  0  0  0  0  0  0  0  0  0
    1.2831   -0.0110    3.8514 C   0  0  0  0  0  0  0  0  0  0  0  0
    1.2189   -0.0000    2.4468 C   0  0  0  0  0  0  0  0  0  0  0  0
   -0.0000    0.0000    1.7688 C   0  0  0  0  0  0  0  0  0  0  0  0
    0.0000    0.0000    0.0000 S   0  0  0  0  0  0  0  0  0  0  0  0
    2.5861    0.0064    4.4554 C   0  0  0  0  0  0  0  0  0  0  0  0
    3.6819    0.0494    4.8352 N   0  0  0  0  0  0  0  0  0  0  0  0
   -3.6851   -0.9451    3.1386 H   0  0  0  0  0  0  0  0  0  0  0  0
   -3.7209    0.8528    3.1321 H   0  0  0  0  0  0  0  0  0  0  0  0
   -4.3730   -0.0640    1.7357 H   0  0  0  0  0  0  0  0  0  0  0  0
   -2.0547   -0.0316    4.5035 H   0  0  0  0  0  0  0  0  0  0  0  0
   -1.4161    1.3286    6.2656 H   0  0  0  0  0  0  0  0  0  0  0  0
   -0.8502    0.6339    7.7449 H   0  0  0  0  0  0  0  0  0  0  0  0
    2.1498    0.0077    1.8774 H   0  0  0  0  0  0  0  0  0  0  0  0
   -1.3440   -0.0079   -0.1276 H   0  0  0  0  0  0  0  0  0  0  0  0
  1 16  1  0  0  0  0
  1 15  1  0  0  0  0
  2  1  1  0  0  0  0
  2  3  1  0  0  0  0
  3  4  2  0  0  0  0
  4 18  1  0  0  0  0
  4  5  1  0  0  0  0
  5  6  1  0  0  0  0
  6  7  2  0  0  0  0
  6  8  1  0  0  0  0
  8 20  1  0  0  0  0
  9 13  1  0  0  0  0
  9  5  2  0  0  0  0
 10  9  1  0  0  0  0
 11 10  2  0  0  0  0
 11  3  1  0  0  0  0
 12 11  1  0  0  0  0
 13 14  3  0  0  0  0
 17  1  1  0  0  0  0
 19  8  1  0  0  0  0
 21 10  1  0  0  0  0
 22 12  1  0  0  0  0
M  END
