107941210.xyz
 OpenBabel08132112083D
CCc1cc(OC(F)F)c(c(c1)S)OC
 27 27  0  0  0  0  0  0  0  0999 V2000
    3.0135    1.4607    4.9317 C   0  0  0  0  0  0  0  0  0  0  0  0
    2.5887    0.0251    4.5939 C   0  0  0  0  0  0  0  0  0  0  0  0
    1.2658   -0.0314    3.8656 C   0  0  0  0  0  0  0  0  0  0  0  0
    0.0601   -0.0446    4.5812 C   0  0  0  0  0  0  0  0  0  0  0  0
   -1.1531   -0.0401    3.9007 C   0  0  0  0  0  0  0  0  0  0  0  0
   -2.3353   -0.1109    4.6173 O   0  0  0  0  0  0  0  0  0  0  0  0
   -3.1201    1.0164    4.6192 C   0  0  0  0  0  0  0  0  0  0  0  0
   -2.6992    1.8697    5.5825 F   0  0  0  0  0  0  0  0  0  0  0  0
   -4.3642    0.6260    4.9299 F   0  0  0  0  0  0  0  0  0  0  0  0
   -1.2048   -0.0244    2.4985 C   0  0  0  0  0  0  0  0  0  0  0  0
   -0.0000   -0.0000    1.7743 C   0  0  0  0  0  0  0  0  0  0  0  0
    1.2196   -0.0000    2.4670 C   0  0  0  0  0  0  0  0  0  0  0  0
    0.0000    0.0000    0.0000 S   0  0  0  0  0  0  0  0  0  0  0  0
   -2.4123    0.0030    1.8493 O   0  0  0  0  0  0  0  0  0  0  0  0
   -3.0959   -1.2512    1.7939 C   0  0  0  0  0  0  0  0  0  0  0  0
    2.2637    1.9535    5.5705 H   0  0  0  0  0  0  0  0  0  0  0  0
    3.1178    2.0653    4.0169 H   0  0  0  0  0  0  0  0  0  0  0  0
    3.9780    1.4748    5.4635 H   0  0  0  0  0  0  0  0  0  0  0  0
    3.3663   -0.4533    3.9764 H   0  0  0  0  0  0  0  0  0  0  0  0
    2.5184   -0.5651    5.5224 H   0  0  0  0  0  0  0  0  0  0  0  0
    0.0434   -0.0573    5.6723 H   0  0  0  0  0  0  0  0  0  0  0  0
   -3.1178    1.5424    3.6510 H   0  0  0  0  0  0  0  0  0  0  0  0
    2.1527    0.0247    1.8985 H   0  0  0  0  0  0  0  0  0  0  0  0
   -1.3183    0.2786   -0.1125 H   0  0  0  0  0  0  0  0  0  0  0  0
   -3.3411   -1.6104    2.8056 H   0  0  0  0  0  0  0  0  0  0  0  0
   -4.0240   -1.0805    1.2321 H   0  0  0  0  0  0  0  0  0  0  0  0
   -2.4824   -2.0039    1.2709 H   0  0  0  0  0  0  0  0  0  0  0  0
  1 18  1  0  0  0  0
  1 16  1  0  0  0  0
  2  1  1  0  0  0  0
  2 20  1  0  0  0  0
  3  4  2  0  0  0  0
  3  2  1  0  0  0  0
  4 21  1  0  0  0  0
  5  4  1  0  0  0  0
  5  6  1  0  0  0  0
  6  7  1  0  0  0  0
  7  9  1  0  0  0  0
  7  8  1  0  0  0  0
 10  5  2  0  0  0  0
 11 12  2  0  0  0  0
 11 10  1  0  0  0  0
 12  3  1  0  0  0  0
 13 11  1  0  0  0  0
 14 10  1  0  0  0  0
 15 14  1  0  0  0  0
 15 25  1  0  0  0  0
 17  1  1  0  0  0  0
 19  2  1  0  0  0  0
 22  7  1  0  0  0  0
 23 12  1  0  0  0  0
 24 13  1  0  0  0  0
 26 15  1  0  0  0  0
 27 15  1  0  0  0  0
M  END
