108155773.xyz
 OpenBabel08132112083D
CCOC(=O)Cc1c(F)ccc(c1S)OC(F)(F)F
 29 29  0  0  0  0  0  0  0  0999 V2000
   -5.1854    2.4296   -1.4108 C   0  0  0  0  0  0  0  0  0  0  0  0
   -4.2515    2.6966   -0.2509 C   0  0  0  0  0  0  0  0  0  0  0  0
   -3.7797    1.4280    0.2370 O   0  0  0  0  0  0  0  0  0  0  0  0
   -2.9196    1.4644    1.2652 C   0  0  0  0  0  0  0  0  0  0  0  0
   -2.5271    2.4777    1.7840 O   0  0  0  0  0  0  0  0  0  0  0  0
   -2.5409    0.0538    1.6998 C   0  0  0  0  0  0  0  0  0  0  0  0
   -1.2385    0.0186    2.4455 C   0  0  0  0  0  0  0  0  0  0  0  0
   -1.2252    0.0560    3.8413 C   0  0  0  0  0  0  0  0  0  0  0  0
   -2.4012    0.0897    4.4865 F   0  0  0  0  0  0  0  0  0  0  0  0
   -0.0546    0.0418    4.5916 C   0  0  0  0  0  0  0  0  0  0  0  0
    1.1652    0.0043    3.9190 C   0  0  0  0  0  0  0  0  0  0  0  0
    1.1862    0.0000    2.5268 C   0  0  0  0  0  0  0  0  0  0  0  0
    0.0000   -0.0000    1.7732 C   0  0  0  0  0  0  0  0  0  0  0  0
    0.0000    0.0000    0.0000 S   0  0  0  0  0  0  0  0  0  0  0  0
    2.4056   -0.0666    1.8461 O   0  0  0  0  0  0  0  0  0  0  0  0
    3.1902    1.0396    1.8213 C   0  0  0  0  0  0  0  0  0  0  0  0
    3.7216    1.3103    3.0231 F   0  0  0  0  0  0  0  0  0  0  0  0
    2.5210    2.1260    1.4270 F   0  0  0  0  0  0  0  0  0  0  0  0
    4.1795    0.8077    0.9678 F   0  0  0  0  0  0  0  0  0  0  0  0
   -4.6633    1.8964   -2.2199 H   0  0  0  0  0  0  0  0  0  0  0  0
   -6.0434    1.8180   -1.0923 H   0  0  0  0  0  0  0  0  0  0  0  0
   -5.5677    3.3805   -1.8126 H   0  0  0  0  0  0  0  0  0  0  0  0
   -3.3829    3.3057   -0.5478 H   0  0  0  0  0  0  0  0  0  0  0  0
   -4.7527    3.2305    0.5725 H   0  0  0  0  0  0  0  0  0  0  0  0
   -3.3560   -0.3058    2.3464 H   0  0  0  0  0  0  0  0  0  0  0  0
   -2.5205   -0.5991    0.8149 H   0  0  0  0  0  0  0  0  0  0  0  0
   -0.1113    0.0583    5.6803 H   0  0  0  0  0  0  0  0  0  0  0  0
    2.1078   -0.0155    4.4656 H   0  0  0  0  0  0  0  0  0  0  0  0
    1.3217   -0.2400   -0.1323 H   0  0  0  0  0  0  0  0  0  0  0  0
  1 21  1  0  0  0  0
  1  2  1  0  0  0  0
  2  3  1  0  0  0  0
  2 24  1  0  0  0  0
  3  4  1  0  0  0  0
  4  6  1  0  0  0  0
  4  5  2  0  0  0  0
  6 25  1  0  0  0  0
  6  7  1  0  0  0  0
  7  8  1  0  0  0  0
  8  9  1  0  0  0  0
  8 10  2  0  0  0  0
 10 27  1  0  0  0  0
 11 28  1  0  0  0  0
 11 10  1  0  0  0  0
 12 11  2  0  0  0  0
 13  7  2  0  0  0  0
 13 12  1  0  0  0  0
 14 13  1  0  0  0  0
 15 12  1  0  0  0  0
 16 15  1  0  0  0  0
 16 17  1  0  0  0  0
 18 16  1  0  0  0  0
 19 16  1  0  0  0  0
 20  1  1  0  0  0  0
 22  1  1  0  0  0  0
 23  2  1  0  0  0  0
 26  6  1  0  0  0  0
 29 14  1  0  0  0  0
M  END
