108168965.xyz
 OpenBabel08132112083D
OC(=O)c1cc(F)c(c(c1)S)I
 16 16  0  0  0  0  0  0  0  0999 V2000
    3.7562   -0.0002    3.5608 O   0  0  0  0  0  0  0  0  0  0  0  0
    2.7321    0.0000    4.4367 C   0  0  0  0  0  0  0  0  0  0  0  0
    2.8965   -0.0000    5.6330 O   0  0  0  0  0  0  0  0  0  0  0  0
    1.3971    0.0000    3.7698 C   0  0  0  0  0  0  0  0  0  0  0  0
    0.2615    0.0001    4.5891 C   0  0  0  0  0  0  0  0  0  0  0  0
   -0.9879    0.0001    3.9898 C   0  0  0  0  0  0  0  0  0  0  0  0
   -2.0721    0.0002    4.7679 F   0  0  0  0  0  0  0  0  0  0  0  0
   -1.1436   -0.0000    2.5951 C   0  0  0  0  0  0  0  0  0  0  0  0
    0.0000   -0.0000    1.7694 C   0  0  0  0  0  0  0  0  0  0  0  0
    1.2675   -0.0000    2.3803 C   0  0  0  0  0  0  0  0  0  0  0  0
    0.0000    0.0000    0.0000 S   0  0  0  0  0  0  0  0  0  0  0  0
   -3.1226   -0.0003    1.8452 I   0  0  0  0  0  0  0  0  0  0  0  0
    4.5729   -0.0003    4.0877 H   0  0  0  0  0  0  0  0  0  0  0  0
    0.3564    0.0001    5.6748 H   0  0  0  0  0  0  0  0  0  0  0  0
    2.1636   -0.0000    1.7597 H   0  0  0  0  0  0  0  0  0  0  0  0
   -1.3439    0.0002   -0.1576 H   0  0  0  0  0  0  0  0  0  0  0  0
  1 13  1  0  0  0  0
  1  2  1  0  0  0  0
  2  3  2  0  0  0  0
  4  2  1  0  0  0  0
  4  5  2  0  0  0  0
  5 14  1  0  0  0  0
  6  5  1  0  0  0  0
  6  7  1  0  0  0  0
  8  6  2  0  0  0  0
  9 10  2  0  0  0  0
  9  8  1  0  0  0  0
 10  4  1  0  0  0  0
 11  9  1  0  0  0  0
 12  8  1  0  0  0  0
 15 10  1  0  0  0  0
 16 11  1  0  0  0  0
M  END
