108158435.xyz
 OpenBabel08132112083D
CCOC(=O)c1ccc(c(c1OC(F)(F)F)I)S
 26 26  0  0  0  0  0  0  0  0999 V2000
    3.4094    0.5002    8.0764 C   0  0  0  0  0  0  0  0  0  0  0  0
    2.0056   -0.0159    7.8493 C   0  0  0  0  0  0  0  0  0  0  0  0
    1.6924    0.1556    6.4571 O   0  0  0  0  0  0  0  0  0  0  0  0
    0.4656   -0.2400    6.0688 C   0  0  0  0  0  0  0  0  0  0  0  0
   -0.3494   -0.7067    6.8251 O   0  0  0  0  0  0  0  0  0  0  0  0
    0.2874   -0.0624    4.5928 C   0  0  0  0  0  0  0  0  0  0  0  0
    1.4090   -0.0372    3.7494 C   0  0  0  0  0  0  0  0  0  0  0  0
    1.2711   -0.0000    2.3719 C   0  0  0  0  0  0  0  0  0  0  0  0
   -0.0000   -0.0000    1.7649 C   0  0  0  0  0  0  0  0  0  0  0  0
   -1.1376   -0.0014    2.6005 C   0  0  0  0  0  0  0  0  0  0  0  0
   -0.9853   -0.0044    3.9980 C   0  0  0  0  0  0  0  0  0  0  0  0
   -2.1216    0.0002    4.7831 O   0  0  0  0  0  0  0  0  0  0  0  0
   -2.5288    1.1609    5.3621 C   0  0  0  0  0  0  0  0  0  0  0  0
   -2.9210    2.0598    4.4463 F   0  0  0  0  0  0  0  0  0  0  0  0
   -3.5510    0.8787    6.1488 F   0  0  0  0  0  0  0  0  0  0  0  0
   -1.5673    1.7512    6.0831 F   0  0  0  0  0  0  0  0  0  0  0  0
   -3.1067   -0.0644    1.8049 I   0  0  0  0  0  0  0  0  0  0  0  0
    0.0000    0.0000    0.0000 S   0  0  0  0  0  0  0  0  0  0  0  0
    3.6824    0.3916    9.1372 H   0  0  0  0  0  0  0  0  0  0  0  0
    3.4845    1.5648    7.8068 H   0  0  0  0  0  0  0  0  0  0  0  0
    4.1390   -0.0617    7.4731 H   0  0  0  0  0  0  0  0  0  0  0  0
    1.9063   -1.0824    8.1081 H   0  0  0  0  0  0  0  0  0  0  0  0
    1.2593    0.5299    8.4483 H   0  0  0  0  0  0  0  0  0  0  0  0
    2.4002   -0.0625    4.2005 H   0  0  0  0  0  0  0  0  0  0  0  0
    2.1596    0.0129    1.7371 H   0  0  0  0  0  0  0  0  0  0  0  0
   -1.3441    0.0349   -0.1581 H   0  0  0  0  0  0  0  0  0  0  0  0
  1 19  1  0  0  0  0
  2  1  1  0  0  0  0
  2 22  1  0  0  0  0
  2 23  1  0  0  0  0
  3  2  1  0  0  0  0
  4  3  1  0  0  0  0
  4  5  2  0  0  0  0
  6  4  1  0  0  0  0
  7 24  1  0  0  0  0
  7  6  2  0  0  0  0
  8  7  1  0  0  0  0
  9  8  2  0  0  0  0
  9 10  1  0  0  0  0
 10 11  2  0  0  0  0
 11  6  1  0  0  0  0
 11 12  1  0  0  0  0
 12 13  1  0  0  0  0
 13 16  1  0  0  0  0
 13 15  1  0  0  0  0
 14 13  1  0  0  0  0
 17 10  1  0  0  0  0
 18  9  1  0  0  0  0
 20  1  1  0  0  0  0
 21  1  1  0  0  0  0
 25  8  1  0  0  0  0
 26 18  1  0  0  0  0
M  END
