108162013.xyz
 OpenBabel08132112083D
CCc1cc(S)cc(c1C)C(F)(F)F
 25 25  0  0  0  0  0  0  0  0999 V2000
    3.0818    1.4567    4.9479 C   0  0  0  0  0  0  0  0  0  0  0  0
    2.6994    0.0525    4.4609 C   0  0  0  0  0  0  0  0  0  0  0  0
    1.3214   -0.0031    3.8358 C   0  0  0  0  0  0  0  0  0  0  0  0
    1.2324    0.0000    2.4385 C   0  0  0  0  0  0  0  0  0  0  0  0
   -0.0000   -0.0000    1.7772 C   0  0  0  0  0  0  0  0  0  0  0  0
    0.0000    0.0000    0.0000 S   0  0  0  0  0  0  0  0  0  0  0  0
   -1.1696   -0.0002    2.5425 C   0  0  0  0  0  0  0  0  0  0  0  0
   -1.0936   -0.0046    3.9369 C   0  0  0  0  0  0  0  0  0  0  0  0
    0.1430   -0.0093    4.6175 C   0  0  0  0  0  0  0  0  0  0  0  0
    0.2035    0.0046    6.1274 C   0  0  0  0  0  0  0  0  0  0  0  0
   -2.3939   -0.0047    4.7098 C   0  0  0  0  0  0  0  0  0  0  0  0
   -3.4661    0.0975    3.9054 F   0  0  0  0  0  0  0  0  0  0  0  0
   -2.5572   -1.1372    5.4268 F   0  0  0  0  0  0  0  0  0  0  0  0
   -2.4634    1.0204    5.5817 F   0  0  0  0  0  0  0  0  0  0  0  0
    4.0956    1.4630    5.3784 H   0  0  0  0  0  0  0  0  0  0  0  0
    3.0592    2.1774    4.1155 H   0  0  0  0  0  0  0  0  0  0  0  0
    2.3853    1.8202    5.7188 H   0  0  0  0  0  0  0  0  0  0  0  0
    2.7682   -0.6605    5.2981 H   0  0  0  0  0  0  0  0  0  0  0  0
    3.4372   -0.2849    3.7163 H   0  0  0  0  0  0  0  0  0  0  0  0
    2.1558    0.0022    1.8532 H   0  0  0  0  0  0  0  0  0  0  0  0
   -1.3420    0.0005   -0.1566 H   0  0  0  0  0  0  0  0  0  0  0  0
   -2.1471    0.0035    2.0615 H   0  0  0  0  0  0  0  0  0  0  0  0
    1.1757   -0.3425    6.4968 H   0  0  0  0  0  0  0  0  0  0  0  0
    0.0419    1.0216    6.5195 H   0  0  0  0  0  0  0  0  0  0  0  0
   -0.5693   -0.6361    6.5699 H   0  0  0  0  0  0  0  0  0  0  0  0
  1 15  1  0  0  0  0
  1 17  1  0  0  0  0
  2  1  1  0  0  0  0
  2 18  1  0  0  0  0
  3  2  1  0  0  0  0
  3  9  2  0  0  0  0
  4  3  1  0  0  0  0
  5  4  2  0  0  0  0
  5  7  1  0  0  0  0
  6  5  1  0  0  0  0
  7  8  2  0  0  0  0
  8  9  1  0  0  0  0
  8 11  1  0  0  0  0
  9 10  1  0  0  0  0
 10 23  1  0  0  0  0
 10 24  1  0  0  0  0
 10 25  1  0  0  0  0
 11 13  1  0  0  0  0
 11 14  1  0  0  0  0
 12 11  1  0  0  0  0
 16  1  1  0  0  0  0
 19  2  1  0  0  0  0
 20  4  1  0  0  0  0
 21  6  1  0  0  0  0
 22  7  1  0  0  0  0
M  END
