110006319.xyz
 OpenBabel08132112083D
CCC(=O)S
 11 10  0  0  0  0  0  0  0  0999 V2000
   -1.4047    0.0029    3.9239 C   0  0  0  0  0  0  0  0  0  0  0  0
   -1.4020    0.0022    2.4004 C   0  0  0  0  0  0  0  0  0  0  0  0
    0.0000   -0.0000    1.8140 C   0  0  0  0  0  0  0  0  0  0  0  0
    1.0119    0.0000    2.4622 O   0  0  0  0  0  0  0  0  0  0  0  0
    0.0000    0.0000    0.0000 S   0  0  0  0  0  0  0  0  0  0  0  0
   -0.8874   -0.8836    4.3190 H   0  0  0  0  0  0  0  0  0  0  0  0
   -0.8848    0.8882    4.3182 H   0  0  0  0  0  0  0  0  0  0  0  0
   -2.4355    0.0046    4.3082 H   0  0  0  0  0  0  0  0  0  0  0  0
   -1.9333   -0.8760    1.9935 H   0  0  0  0  0  0  0  0  0  0  0  0
   -1.9309    0.8814    1.9927 H   0  0  0  0  0  0  0  0  0  0  0  0
    1.3486   -0.0009   -0.0922 H   0  0  0  0  0  0  0  0  0  0  0  0
  1  8  1  0  0  0  0
  1  7  1  0  0  0  0
  1  6  1  0  0  0  0
  2  1  1  0  0  0  0
  3  2  1  0  0  0  0
  3  4  2  0  0  0  0
  5  3  1  0  0  0  0
  9  2  1  0  0  0  0
 10  2  1  0  0  0  0
 11  5  1  0  0  0  0
M  END
