114682694.xyz
 OpenBabel08132112083D
Sc1nccn1c1c(C)cccc1F
 23 24  0  0  0  0  0  0  0  0999 V2000
    0.0000    0.0000    0.0000 S   0  0  0  0  0  0  0  0  0  0  0  0
    0.0000   -0.0000    1.7661 C   0  0  0  0  0  0  0  0  0  0  0  0
   -1.0841   -0.0621    2.4985 N   0  0  0  0  0  0  0  0  0  0  0  0
   -0.6544   -0.0966    3.8052 C   0  0  0  0  0  0  0  0  0  0  0  0
    0.7165   -0.0443    3.8634 C   0  0  0  0  0  0  0  0  0  0  0  0
    1.1445   -0.0000    2.5416 N   0  0  0  0  0  0  0  0  0  0  0  0
    2.4913    0.0589    2.0965 C   0  0  0  0  0  0  0  0  0  0  0  0
    3.1346   -1.0812    1.5759 C   0  0  0  0  0  0  0  0  0  0  0  0
    2.3948   -2.3865    1.4781 C   0  0  0  0  0  0  0  0  0  0  0  0
    4.4622   -0.9498    1.1457 C   0  0  0  0  0  0  0  0  0  0  0  0
    5.1359    0.2710    1.2351 C   0  0  0  0  0  0  0  0  0  0  0  0
    4.5000    1.3980    1.7585 C   0  0  0  0  0  0  0  0  0  0  0  0
    3.1812    1.2744    2.1825 C   0  0  0  0  0  0  0  0  0  0  0  0
    2.5458    2.3371    2.6848 F   0  0  0  0  0  0  0  0  0  0  0  0
    1.1780    0.6518   -0.1377 H   0  0  0  0  0  0  0  0  0  0  0  0
   -1.3579   -0.1467    4.6349 H   0  0  0  0  0  0  0  0  0  0  0  0
    1.4256   -0.0235    4.6861 H   0  0  0  0  0  0  0  0  0  0  0  0
    1.6367   -2.3383    0.6790 H   0  0  0  0  0  0  0  0  0  0  0  0
    3.0824   -3.2139    1.2560 H   0  0  0  0  0  0  0  0  0  0  0  0
    1.8578   -2.6113    2.4121 H   0  0  0  0  0  0  0  0  0  0  0  0
    4.9756   -1.8240    0.7396 H   0  0  0  0  0  0  0  0  0  0  0  0
    6.1714    0.3464    0.8960 H   0  0  0  0  0  0  0  0  0  0  0  0
    4.9997    2.3640    1.8434 H   0  0  0  0  0  0  0  0  0  0  0  0
  1  2  1  0  0  0  0
  2  3  2  0  0  0  0
  2  6  1  0  0  0  0
  3  4  2  0  0  0  0
  4  5  1  0  0  0  0
  4 16  1  0  0  0  0
  5 17  1  0  0  0  0
  6  5  1  0  0  0  0
  7 13  1  0  0  0  0
  7  6  1  0  0  0  0
  8  7  2  0  0  0  0
  9  8  1  0  0  0  0
  9 20  1  0  0  0  0
 10 11  2  0  0  0  0
 10  8  1  0  0  0  0
 11 12  1  0  0  0  0
 12 23  1  0  0  0  0
 12 13  2  0  0  0  0
 13 14  1  0  0  0  0
 15  1  1  0  0  0  0
 18  9  1  0  0  0  0
 19  9  1  0  0  0  0
 21 10  1  0  0  0  0
 22 11  1  0  0  0  0
M  RAD  1   5   2
M  END
