114615989.xyz
 OpenBabel08132112083D
Cc1nc(nc(c1)S)CC(C)(C)C
 29 29  0  0  0  0  0  0  0  0999 V2000
   -2.3830   -0.0052    4.7163 C   0  0  0  0  0  0  0  0  0  0  0  0
   -1.1522   -0.0036    3.8549 C   0  0  0  0  0  0  0  0  0  0  0  0
    0.0308   -0.0054    4.4916 N   0  0  0  0  0  0  0  0  0  0  0  0
    1.1406   -0.0054    3.7489 C   0  0  0  0  0  0  0  0  0  0  0  0
    1.1691   -0.0000    2.4059 N   0  0  0  0  0  0  0  0  0  0  0  0
    0.0000   -0.0000    1.7704 C   0  0  0  0  0  0  0  0  0  0  0  0
   -1.2218   -0.0001    2.4613 C   0  0  0  0  0  0  0  0  0  0  0  0
    0.0000    0.0000    0.0000 S   0  0  0  0  0  0  0  0  0  0  0  0
    2.4623   -0.0386    4.4643 C   0  0  0  0  0  0  0  0  0  0  0  0
    3.0206   -1.4645    4.7480 C   0  0  0  0  0  0  0  0  0  0  0  0
    4.3586   -1.2938    5.4851 C   0  0  0  0  0  0  0  0  0  0  0  0
    3.2596   -2.2249    3.4342 C   0  0  0  0  0  0  0  0  0  0  0  0
    2.0504   -2.2585    5.6364 C   0  0  0  0  0  0  0  0  0  0  0  0
   -2.3808   -0.8947    5.3660 H   0  0  0  0  0  0  0  0  0  0  0  0
   -3.3068    0.0037    4.1216 H   0  0  0  0  0  0  0  0  0  0  0  0
   -2.3725    0.8725    5.3815 H   0  0  0  0  0  0  0  0  0  0  0  0
   -2.1779    0.0038    1.9359 H   0  0  0  0  0  0  0  0  0  0  0  0
    1.3490    0.0021   -0.0908 H   0  0  0  0  0  0  0  0  0  0  0  0
    3.1971    0.5079    3.8542 H   0  0  0  0  0  0  0  0  0  0  0  0
    2.3412    0.4851    5.4241 H   0  0  0  0  0  0  0  0  0  0  0  0
    4.2228   -0.7532    6.4358 H   0  0  0  0  0  0  0  0  0  0  0  0
    4.8065   -2.2740    5.7150 H   0  0  0  0  0  0  0  0  0  0  0  0
    5.0802   -0.7278    4.8739 H   0  0  0  0  0  0  0  0  0  0  0  0
    3.9431   -1.6708    2.7716 H   0  0  0  0  0  0  0  0  0  0  0  0
    2.3232   -2.3851    2.8799 H   0  0  0  0  0  0  0  0  0  0  0  0
    3.7067   -3.2111    3.6397 H   0  0  0  0  0  0  0  0  0  0  0  0
    2.4768   -3.2449    5.8813 H   0  0  0  0  0  0  0  0  0  0  0  0
    1.0829   -2.4201    5.1389 H   0  0  0  0  0  0  0  0  0  0  0  0
    1.8488   -1.7279    6.5802 H   0  0  0  0  0  0  0  0  0  0  0  0
  1 14  1  0  0  0  0
  1 16  1  0  0  0  0
  2  3  2  0  0  0  0
  2  1  1  0  0  0  0
  4  9  1  0  0  0  0
  4  3  2  0  0  0  0
  5  4  2  0  0  0  0
  6  5  2  0  0  0  0
  6  7  1  0  0  0  0
  7  2  1  0  0  0  0
  8  6  1  0  0  0  0
  9 10  1  0  0  0  0
  9 20  1  0  0  0  0
 10 11  1  0  0  0  0
 10 13  1  0  0  0  0
 11 22  1  0  0  0  0
 11 21  1  0  0  0  0
 12 26  1  0  0  0  0
 12 10  1  0  0  0  0
 13 27  1  0  0  0  0
 13 29  1  0  0  0  0
 15  1  1  0  0  0  0
 17  7  1  0  0  0  0
 18  8  1  0  0  0  0
 19  9  1  0  0  0  0
 23 11  1  0  0  0  0
 24 12  1  0  0  0  0
 25 12  1  0  0  0  0
 28 13  1  0  0  0  0
M  RAD  1   7   2
M  END
