114676218.xyz
 OpenBabel08132112083D
Cc1ccc(nn1)c1nn(c(n1)S)C
 23 24  0  0  0  0  0  0  0  0999 V2000
   -3.6651   -0.0002    8.4754 C   0  0  0  0  0  0  0  0  0  0  0  0
   -2.7381   -0.0001    7.2931 C   0  0  0  0  0  0  0  0  0  0  0  0
   -1.3373    0.0010    7.4442 C   0  0  0  0  0  0  0  0  0  0  0  0
   -0.5639    0.0010    6.3023 C   0  0  0  0  0  0  0  0  0  0  0  0
   -1.2401   -0.0000    5.0657 C   0  0  0  0  0  0  0  0  0  0  0  0
   -2.5731   -0.0010    4.9838 N   0  0  0  0  0  0  0  0  0  0  0  0
   -3.3082   -0.0011    6.0828 N   0  0  0  0  0  0  0  0  0  0  0  0
   -0.4810   -0.0000    3.8037 C   0  0  0  0  0  0  0  0  0  0  0  0
    0.8492   -0.0000    3.7979 N   0  0  0  0  0  0  0  0  0  0  0  0
    1.1532   -0.0000    2.4821 N   0  0  0  0  0  0  0  0  0  0  0  0
   -0.0000   -0.0000    1.7593 C   0  0  0  0  0  0  0  0  0  0  0  0
   -1.0454   -0.0001    2.5601 N   0  0  0  0  0  0  0  0  0  0  0  0
    0.0000    0.0000    0.0000 S   0  0  0  0  0  0  0  0  0  0  0  0
    2.5204    0.0000    2.0097 C   0  0  0  0  0  0  0  0  0  0  0  0
   -3.5010   -0.8877    9.1087 H   0  0  0  0  0  0  0  0  0  0  0  0
   -4.7039   -0.0012    8.1213 H   0  0  0  0  0  0  0  0  0  0  0  0
   -3.5024    0.8880    9.1079 H   0  0  0  0  0  0  0  0  0  0  0  0
   -0.8859    0.0018    8.4395 H   0  0  0  0  0  0  0  0  0  0  0  0
    0.5265    0.0017    6.3267 H   0  0  0  0  0  0  0  0  0  0  0  0
   -1.3496    0.0002   -0.0631 H   0  0  0  0  0  0  0  0  0  0  0  0
    2.7219    0.8968    1.4030 H   0  0  0  0  0  0  0  0  0  0  0  0
    2.7218   -0.8965    1.4026 H   0  0  0  0  0  0  0  0  0  0  0  0
    3.1732   -0.0002    2.8897 H   0  0  0  0  0  0  0  0  0  0  0  0
  1 17  1  0  0  0  0
  1 15  1  0  0  0  0
  2  3  1  0  0  0  0
  2  1  1  0  0  0  0
  3 18  1  0  0  0  0
  4 19  1  0  0  0  0
  4  3  2  0  0  0  0
  5  4  1  0  0  0  0
  6  5  2  0  0  0  0
  6  7  1  0  0  0  0
  7  2  2  0  0  0  0
  8  5  1  0  0  0  0
  9  8  2  0  0  0  0
 10  9  1  0  0  0  0
 11 10  1  0  0  0  0
 11 12  2  0  0  0  0
 12  8  2  0  0  0  0
 13 11  1  0  0  0  0
 14 10  1  0  0  0  0
 14 23  1  0  0  0  0
 16  1  1  0  0  0  0
 20 13  1  0  0  0  0
 21 14  1  0  0  0  0
 22 14  1  0  0  0  0
M  END
