114672243.xyz
 OpenBabel08132112083D
Cc1nc(S)nc(c1)C1=CCCCC1
 28 29  0  0  0  0  0  0  0  0999 V2000
    2.6352   -0.0064    4.2989 C   0  0  0  0  0  0  0  0  0  0  0  0
    1.2760   -0.0003    3.6551 C   0  0  0  0  0  0  0  0  0  0  0  0
    1.2225   -0.0000    2.3217 N   0  0  0  0  0  0  0  0  0  0  0  0
    0.0000    0.0000    1.7746 C   0  0  0  0  0  0  0  0  0  0  0  0
    0.0000    0.0000    0.0000 S   0  0  0  0  0  0  0  0  0  0  0  0
   -1.1606    0.0004    2.4129 N   0  0  0  0  0  0  0  0  0  0  0  0
   -1.1292    0.0052    3.7612 C   0  0  0  0  0  0  0  0  0  0  0  0
    0.1039    0.0049    4.4282 C   0  0  0  0  0  0  0  0  0  0  0  0
   -2.4201   -0.0036    4.4890 C   0  0  0  0  0  0  0  0  0  0  0  0
   -3.5750   -0.1248    3.8029 C   0  0  0  0  0  0  0  0  0  0  0  0
   -4.9314   -0.2029    4.4382 C   0  0  0  0  0  0  0  0  0  0  0  0
   -4.8622   -0.4667    5.9449 C   0  0  0  0  0  0  0  0  0  0  0  0
   -3.7852    0.4082    6.5863 C   0  0  0  0  0  0  0  0  0  0  0  0
   -2.4027    0.1052    5.9993 C   0  0  0  0  0  0  0  0  0  0  0  0
    2.7615   -0.8968    4.9359 H   0  0  0  0  0  0  0  0  0  0  0  0
    2.7662    0.8772    4.9445 H   0  0  0  0  0  0  0  0  0  0  0  0
    3.4127   -0.0050    3.5248 H   0  0  0  0  0  0  0  0  0  0  0  0
   -1.3477    0.0031   -0.1038 H   0  0  0  0  0  0  0  0  0  0  0  0
    0.1666    0.0018    5.5153 H   0  0  0  0  0  0  0  0  0  0  0  0
   -3.5104   -0.1744    2.7130 H   0  0  0  0  0  0  0  0  0  0  0  0
   -5.4700    0.7453    4.2411 H   0  0  0  0  0  0  0  0  0  0  0  0
   -5.5286   -0.9798    3.9296 H   0  0  0  0  0  0  0  0  0  0  0  0
   -4.6173   -1.5296    6.1188 H   0  0  0  0  0  0  0  0  0  0  0  0
   -5.8441   -0.2880    6.4113 H   0  0  0  0  0  0  0  0  0  0  0  0
   -3.7660    0.2712    7.6792 H   0  0  0  0  0  0  0  0  0  0  0  0
   -4.0306    1.4701    6.4061 H   0  0  0  0  0  0  0  0  0  0  0  0
   -1.6933    0.8916    6.3063 H   0  0  0  0  0  0  0  0  0  0  0  0
   -2.0070   -0.8345    6.4291 H   0  0  0  0  0  0  0  0  0  0  0  0
  1 15  1  0  0  0  0
  1 16  1  0  0  0  0
  2  1  1  0  0  0  0
  2  8  1  0  0  0  0
  3  2  2  0  0  0  0
  4  3  2  0  0  0  0
  4  6  2  0  0  0  0
  5  4  1  0  0  0  0
  6  7  2  0  0  0  0
  7  8  1  0  0  0  0
  7  9  1  0  0  0  0
  8 19  1  0  0  0  0
  9 14  1  0  0  0  0
 10 11  1  0  0  0  0
 10  9  2  0  0  0  0
 11 12  1  0  0  0  0
 12 23  1  0  0  0  0
 12 24  1  0  0  0  0
 12 13  1  0  0  0  0
 13 25  1  0  0  0  0
 14 27  1  0  0  0  0
 14 28  1  0  0  0  0
 14 13  1  0  0  0  0
 17  1  1  0  0  0  0
 18  5  1  0  0  0  0
 20 10  1  0  0  0  0
 21 11  1  0  0  0  0
 22 11  1  0  0  0  0
 26 13  1  0  0  0  0
M  RAD  1   8   2
M  END
