114676536.xyz
 OpenBabel08132112083D
CCc1cc(S)nc(n1)c1c[nH]nn1
 23 24  0  0  0  0  0  0  0  0999 V2000
   -2.4500   -1.2224    5.6460 C   0  0  0  0  0  0  0  0  0  0  0  0
   -2.4039   -0.0083    4.7119 C   0  0  0  0  0  0  0  0  0  0  0  0
   -1.1658    0.0024    3.8520 C   0  0  0  0  0  0  0  0  0  0  0  0
   -1.2262   -0.0019    2.4574 C   0  0  0  0  0  0  0  0  0  0  0  0
   -0.0000   -0.0000    1.7710 C   0  0  0  0  0  0  0  0  0  0  0  0
    0.0000    0.0000    0.0000 S   0  0  0  0  0  0  0  0  0  0  0  0
    1.1641   -0.0000    2.4112 N   0  0  0  0  0  0  0  0  0  0  0  0
    1.1179   -0.0006    3.7570 C   0  0  0  0  0  0  0  0  0  0  0  0
    0.0116    0.0020    4.4960 N   0  0  0  0  0  0  0  0  0  0  0  0
    2.4190   -0.0041    4.4379 C   0  0  0  0  0  0  0  0  0  0  0  0
    3.6751    0.0019    3.8505 C   0  0  0  0  0  0  0  0  0  0  0  0
    4.5181   -0.0070    4.9066 N   0  0  0  0  0  0  0  0  0  0  0  0
    3.8450   -0.0187    6.0772 N   0  0  0  0  0  0  0  0  0  0  0  0
    2.5841   -0.0170    5.7966 N   0  0  0  0  0  0  0  0  0  0  0  0
   -3.3237   -1.1712    6.3134 H   0  0  0  0  0  0  0  0  0  0  0  0
   -2.5113   -2.1613    5.0727 H   0  0  0  0  0  0  0  0  0  0  0  0
   -1.5384   -1.2569    6.2599 H   0  0  0  0  0  0  0  0  0  0  0  0
   -2.3928    0.9139    5.3180 H   0  0  0  0  0  0  0  0  0  0  0  0
   -3.3001    0.0327    4.0733 H   0  0  0  0  0  0  0  0  0  0  0  0
   -2.1793   -0.0053    1.9268 H   0  0  0  0  0  0  0  0  0  0  0  0
    1.3482   -0.0025   -0.0962 H   0  0  0  0  0  0  0  0  0  0  0  0
    3.9897    0.0116    2.8124 H   0  0  0  0  0  0  0  0  0  0  0  0
    5.5323   -0.0060    4.9131 H   0  0  0  0  0  0  0  0  0  0  0  0
  1 17  1  0  0  0  0
  1 15  1  0  0  0  0
  2 18  1  0  0  0  0
  2  1  1  0  0  0  0
  3  9  2  0  0  0  0
  3  2  1  0  0  0  0
  4  3  1  0  0  0  0
  5  7  2  0  0  0  0
  5  4  1  0  0  0  0
  6  5  1  0  0  0  0
  7  8  2  0  0  0  0
  8 10  1  0  0  0  0
  8  9  2  0  0  0  0
 10 14  2  0  0  0  0
 11 10  1  0  0  0  0
 11 12  1  0  0  0  0
 12 23  1  0  0  0  0
 12 13  1  0  0  0  0
 14 13  1  0  0  0  0
 16  1  1  0  0  0  0
 19  2  1  0  0  0  0
 20  4  1  0  0  0  0
 21  6  1  0  0  0  0
 22 11  1  0  0  0  0
M  RAD  3   4   2  11   2  13   2
M  END
