114668551.xyz
 OpenBabel08132112083D
Oc1nc(S)nc(c1)c1nccnc1
 20 21  0  0  0  0  0  0  0  0999 V2000
   -2.3251   -0.0023    4.3428 O   0  0  0  0  0  0  0  0  0  0  0  0
   -1.1329   -0.0015    3.7295 C   0  0  0  0  0  0  0  0  0  0  0  0
   -1.1745   -0.0009    2.4031 N   0  0  0  0  0  0  0  0  0  0  0  0
    0.0000    0.0000    1.7692 C   0  0  0  0  0  0  0  0  0  0  0  0
    0.0000    0.0000    0.0000 S   0  0  0  0  0  0  0  0  0  0  0  0
    1.2079   -0.0000    2.3295 N   0  0  0  0  0  0  0  0  0  0  0  0
    1.2432   -0.0006    3.6706 C   0  0  0  0  0  0  0  0  0  0  0  0
    0.0802   -0.0013    4.4403 C   0  0  0  0  0  0  0  0  0  0  0  0
    2.5803   -0.0005    4.3177 C   0  0  0  0  0  0  0  0  0  0  0  0
    2.6310   -0.0013    5.6561 N   0  0  0  0  0  0  0  0  0  0  0  0
    3.8360   -0.0012    6.2189 C   0  0  0  0  0  0  0  0  0  0  0  0
    5.0055   -0.0003    5.4476 C   0  0  0  0  0  0  0  0  0  0  0  0
    4.9651    0.0004    4.1144 N   0  0  0  0  0  0  0  0  0  0  0  0
    3.7583    0.0004    3.5483 C   0  0  0  0  0  0  0  0  0  0  0  0
   -2.1940   -0.0026    5.3011 H   0  0  0  0  0  0  0  0  0  0  0  0
   -1.3480   -0.0011   -0.1020 H   0  0  0  0  0  0  0  0  0  0  0  0
    0.1425   -0.0018    5.5286 H   0  0  0  0  0  0  0  0  0  0  0  0
    3.8850   -0.0018    7.3134 H   0  0  0  0  0  0  0  0  0  0  0  0
    5.9911   -0.0003    5.9260 H   0  0  0  0  0  0  0  0  0  0  0  0
    3.6914    0.0009    2.4579 H   0  0  0  0  0  0  0  0  0  0  0  0
  1 15  1  0  0  0  0
  2  1  1  0  0  0  0
  2  8  1  0  0  0  0
  3  2  2  0  0  0  0
  4  6  2  0  0  0  0
  4  3  2  0  0  0  0
  5  4  1  0  0  0  0
  6  7  2  0  0  0  0
  7  9  1  0  0  0  0
  7  8  1  0  0  0  0
  8 17  1  0  0  0  0
  9 10  2  0  0  0  0
 10 11  2  0  0  0  0
 11 18  1  0  0  0  0
 12 19  1  0  0  0  0
 12 11  1  0  0  0  0
 13 12  2  0  0  0  0
 14 13  2  0  0  0  0
 14  9  1  0  0  0  0
 16  5  1  0  0  0  0
 20 14  1  0  0  0  0
M  RAD  1   8   2
M  END
