114762400.xyz
 OpenBabel08132112083D
Cc1sc(cc1C)c1nc(n(n1)C)S
 25 26  0  0  0  0  0  0  0  0999 V2000
    4.4792    0.0009    7.3541 C   0  0  0  0  0  0  0  0  0  0  0  0
    3.1341    0.0003    6.6955 C   0  0  0  0  0  0  0  0  0  0  0  0
    3.0063    0.0010    4.9588 S   0  0  0  0  0  0  0  0  0  0  0  0
    1.2678   -0.0002    5.0316 C   0  0  0  0  0  0  0  0  0  0  0  0
    0.8297   -0.0011    6.3364 C   0  0  0  0  0  0  0  0  0  0  0  0
    1.8880   -0.0009    7.2963 C   0  0  0  0  0  0  0  0  0  0  0  0
    1.6612   -0.0019    8.7855 C   0  0  0  0  0  0  0  0  0  0  0  0
    0.4804   -0.0002    3.8117 C   0  0  0  0  0  0  0  0  0  0  0  0
    1.0460    0.0000    2.5626 N   0  0  0  0  0  0  0  0  0  0  0  0
    0.0000    0.0000    1.7605 C   0  0  0  0  0  0  0  0  0  0  0  0
   -1.1495    0.0001    2.4822 N   0  0  0  0  0  0  0  0  0  0  0  0
   -0.8493    0.0002    3.8052 N   0  0  0  0  0  0  0  0  0  0  0  0
   -2.5162    0.0004    2.0111 C   0  0  0  0  0  0  0  0  0  0  0  0
    0.0000    0.0000    0.0000 S   0  0  0  0  0  0  0  0  0  0  0  0
    5.0722    0.8891    7.0779 H   0  0  0  0  0  0  0  0  0  0  0  0
    4.3710   -0.0001    8.4478 H   0  0  0  0  0  0  0  0  0  0  0  0
    5.0738   -0.8857    7.0764 H   0  0  0  0  0  0  0  0  0  0  0  0
   -0.2302   -0.0020    6.5935 H   0  0  0  0  0  0  0  0  0  0  0  0
    0.5861   -0.0035    9.0154 H   0  0  0  0  0  0  0  0  0  0  0  0
    2.1013    0.8858    9.2692 H   0  0  0  0  0  0  0  0  0  0  0  0
    2.1038   -0.8889    9.2683 H   0  0  0  0  0  0  0  0  0  0  0  0
   -2.7211   -0.8964    1.4052 H   0  0  0  0  0  0  0  0  0  0  0  0
   -3.1662    0.0007    2.8933 H   0  0  0  0  0  0  0  0  0  0  0  0
   -2.7206    0.8971    1.4049 H   0  0  0  0  0  0  0  0  0  0  0  0
    1.3491   -0.0000   -0.0672 H   0  0  0  0  0  0  0  0  0  0  0  0
  1 16  1  0  0  0  0
  2  6  2  0  0  0  0
  2  1  1  0  0  0  0
  3  4  1  0  0  0  0
  3  2  1  0  0  0  0
  4  5  2  0  0  0  0
  5 18  1  0  0  0  0
  5  6  1  0  0  0  0
  6  7  1  0  0  0  0
  7 19  1  0  0  0  0
  7 21  1  0  0  0  0
  7 20  1  0  0  0  0
  8  4  1  0  0  0  0
  9  8  2  0  0  0  0
 10 11  1  0  0  0  0
 10  9  2  0  0  0  0
 11 12  1  0  0  0  0
 12  8  2  0  0  0  0
 13 11  1  0  0  0  0
 13 23  1  0  0  0  0
 14 10  1  0  0  0  0
 15  1  1  0  0  0  0
 17  1  1  0  0  0  0
 22 13  1  0  0  0  0
 24 13  1  0  0  0  0
 25 14  1  0  0  0  0
M  END
