114710740.xyz
 OpenBabel08132112083D
Sc1nc2c(o1)CC(CC2)C(C)(C)C
 31 32  0  0  1  0  0  0  0  0999 V2000
    0.0000    0.0000    0.0000 S   0  0  0  0  0  0  0  0  0  0  0  0
    0.0000   -0.0000    1.7569 C   0  0  0  0  0  0  0  0  0  0  0  0
   -1.0392   -0.0020    2.5292 N   0  0  0  0  0  0  0  0  0  0  0  0
   -0.5076   -0.0059    3.8162 C   0  0  0  0  0  0  0  0  0  0  0  0
    0.8484   -0.0029    3.7451 C   0  0  1  0  0  0  0  0  0  0  0  0
    1.1954   -0.0000    2.4108 O   0  0  0  0  0  0  0  0  0  0  0  0
    1.8341    0.0244    4.8532 C   0  0  0  0  0  0  0  0  0  0  0  0
    1.0781    0.3709    6.1627 C   0  0  1  0  0  0  0  0  0  0  0  0
   -0.2548   -0.4100    6.2324 C   0  0  0  0  0  0  0  0  0  0  0  0
   -1.2411   -0.0209    5.1156 C   0  0  0  0  0  0  0  0  0  0  0  0
    1.9614    0.2260    7.4434 C   0  0  0  0  0  0  0  0  0  0  0  0
    3.3152    0.9277    7.2299 C   0  0  0  0  0  0  0  0  0  0  0  0
    1.2594    0.9145    8.6285 C   0  0  0  0  0  0  0  0  0  0  0  0
    2.2147   -1.2492    7.7997 C   0  0  0  0  0  0  0  0  0  0  0  0
    1.3481    0.0017   -0.0997 H   0  0  0  0  0  0  0  0  0  0  0  0
    2.3479   -0.9502    4.9435 H   0  0  0  0  0  0  0  0  0  0  0  0
    2.6163    0.7708    4.6461 H   0  0  0  0  0  0  0  0  0  0  0  0
    0.8180    1.4434    6.0915 H   0  0  0  0  0  0  0  0  0  0  0  0
   -0.7341   -0.2569    7.2093 H   0  0  0  0  0  0  0  0  0  0  0  0
   -0.0420   -1.4893    6.1510 H   0  0  0  0  0  0  0  0  0  0  0  0
   -2.0830   -0.7308    5.0740 H   0  0  0  0  0  0  0  0  0  0  0  0
   -1.6836    0.9720    5.3160 H   0  0  0  0  0  0  0  0  0  0  0  0
    3.1771    1.9695    6.8966 H   0  0  0  0  0  0  0  0  0  0  0  0
    3.8857    0.9513    8.1718 H   0  0  0  0  0  0  0  0  0  0  0  0
    3.9382    0.4117    6.4843 H   0  0  0  0  0  0  0  0  0  0  0  0
    1.8839    0.8531    9.5338 H   0  0  0  0  0  0  0  0  0  0  0  0
    1.0795    1.9810    8.4165 H   0  0  0  0  0  0  0  0  0  0  0  0
    0.2915    0.4497    8.8674 H   0  0  0  0  0  0  0  0  0  0  0  0
    2.8958   -1.3211    8.6627 H   0  0  0  0  0  0  0  0  0  0  0  0
    1.2848   -1.7713    8.0700 H   0  0  0  0  0  0  0  0  0  0  0  0
    2.6813   -1.7985    6.9668 H   0  0  0  0  0  0  0  0  0  0  0  0
  1  2  1  0  0  0  0
  2  6  1  0  0  0  0
  2  3  2  0  0  0  0
  3  4  2  0  0  0  0
  4 10  1  0  0  0  0
  5  6  1  6  0  0  0
  5  4  1  0  0  0  0
  5  7  1  0  0  0  0
  7 16  1  0  0  0  0
  7  8  1  0  0  0  0
  8 18  1  6  0  0  0
  8  9  1  0  0  0  0
  8 11  1  0  0  0  0
  9 19  1  0  0  0  0
 10 22  1  0  0  0  0
 10  9  1  0  0  0  0
 11 14  1  0  0  0  0
 11 13  1  0  0  0  0
 12 11  1  0  0  0  0
 12 24  1  0  0  0  0
 13 28  1  0  0  0  0
 13 26  1  0  0  0  0
 14 30  1  0  0  0  0
 14 29  1  0  0  0  0
 15  1  1  0  0  0  0
 17  7  1  0  0  0  0
 20  9  1  0  0  0  0
 21 10  1  0  0  0  0
 23 12  1  0  0  0  0
 25 12  1  0  0  0  0
 27 13  1  0  0  0  0
 31 14  1  0  0  0  0
M  RAD  1   5   2
M  END
