114778884.xyz
 OpenBabel08132112083D
CCn1c(S)nc2c1cc(Cl)c(c2)F
 22 23  0  0  1  0  0  0  0  0999 V2000
   -3.0285   -1.5177    1.7401 C   0  0  0  0  0  0  0  0  0  0  0  0
   -2.5377   -0.0823    1.9122 C   0  0  0  0  0  0  0  0  0  0  0  0
   -1.1931   -0.0039    2.4588 N   0  0  0  0  0  0  0  0  0  0  0  0
    0.0000    0.0000    1.7619 C   0  0  0  0  0  0  0  0  0  0  0  0
    0.0000    0.0000    0.0000 S   0  0  0  0  0  0  0  0  0  0  0  0
    1.0644    0.0000    2.5256 N   0  0  0  0  0  0  0  0  0  0  0  0
    0.5762   -0.0169    3.8196 C   0  0  0  0  0  0  0  0  0  0  0  0
   -0.8440   -0.0302    3.8035 C   0  0  0  0  0  0  0  0  0  0  0  0
   -1.6085   -0.0567    4.9692 C   0  0  0  0  0  0  0  0  0  0  0  0
   -0.9128   -0.0636    6.1802 C   0  0  1  0  0  0  0  0  0  0  0  0
   -1.7830   -0.0983    7.6878 Cl  0  0  0  0  0  0  0  0  0  0  0  0
    0.4988   -0.0457    6.2062 C   0  0  0  0  0  0  0  0  0  0  0  0
    1.2581   -0.0220    5.0437 C   0  0  0  0  0  0  0  0  0  0  0  0
    1.1197   -0.0539    7.3910 F   0  0  0  0  0  0  0  0  0  0  0  0
   -3.0334   -2.0489    2.7041 H   0  0  0  0  0  0  0  0  0  0  0  0
   -2.3769   -2.0699    1.0460 H   0  0  0  0  0  0  0  0  0  0  0  0
   -4.0520   -1.5267    1.3347 H   0  0  0  0  0  0  0  0  0  0  0  0
   -3.2017    0.4841    2.5837 H   0  0  0  0  0  0  0  0  0  0  0  0
   -2.5408    0.4522    0.9493 H   0  0  0  0  0  0  0  0  0  0  0  0
    1.3481    0.0644   -0.0586 H   0  0  0  0  0  0  0  0  0  0  0  0
   -2.6983   -0.0747    4.9683 H   0  0  0  0  0  0  0  0  0  0  0  0
    2.3467   -0.0095    5.0986 H   0  0  0  0  0  0  0  0  0  0  0  0
  1  2  1  0  0  0  0
  1 15  1  0  0  0  0
  2  3  1  0  0  0  0
  2 18  1  0  0  0  0
  3  8  1  0  0  0  0
  4  3  1  0  0  0  0
  4  6  2  0  0  0  0
  5  4  1  0  0  0  0
  6  7  2  0  0  0  0
  7 13  1  0  0  0  0
  8  7  1  0  0  0  0
  8  9  2  0  0  0  0
  9 10  1  0  0  0  0
 10 12  1  0  0  0  0
 10 11  1  6  0  0  0
 12 14  1  0  0  0  0
 13 22  1  0  0  0  0
 13 12  2  0  0  0  0
 16  1  1  0  0  0  0
 17  1  1  0  0  0  0
 19  2  1  0  0  0  0
 20  5  1  0  0  0  0
 21  9  1  0  0  0  0
M  RAD  1  10   2
M  END
