114762511.xyz
 OpenBabel08132112083D
Sc1nccn1C(c1nccs1)(C)C
 25 26  0  0  0  0  0  0  0  0999 V2000
    0.0000    0.0000    0.0000 S   0  0  0  0  0  0  0  0  0  0  0  0
    0.0000    0.0000    1.7735 C   0  0  0  0  0  0  0  0  0  0  0  0
   -1.1057    0.0207    2.4842 N   0  0  0  0  0  0  0  0  0  0  0  0
   -0.7039    0.0425    3.7973 C   0  0  0  0  0  0  0  0  0  0  0  0
    0.6652    0.0343    3.8779 C   0  0  0  0  0  0  0  0  0  0  0  0
    1.1291    0.0000    2.5656 N   0  0  0  0  0  0  0  0  0  0  0  0
    2.5580    0.0153    2.1382 C   0  0  0  0  0  0  0  0  0  0  0  0
    3.4241   -0.0560    3.3861 C   0  0  0  0  0  0  0  0  0  0  0  0
    3.8641    0.9835    4.0322 N   0  0  0  0  0  0  0  0  0  0  0  0
    4.5777    0.6315    5.1467 C   0  0  0  0  0  0  0  0  0  0  0  0
    4.6898   -0.7166    5.3708 C   0  0  0  0  0  0  0  0  0  0  0  0
    3.8728   -1.5885    4.1239 S   0  0  0  0  0  0  0  0  0  0  0  0
    2.8579    1.3332    1.4084 C   0  0  0  0  0  0  0  0  0  0  0  0
    2.8414   -1.2030    1.2442 C   0  0  0  0  0  0  0  0  0  0  0  0
   -1.3494    0.0637   -0.0353 H   0  0  0  0  0  0  0  0  0  0  0  0
   -1.4226    0.0643    4.6152 H   0  0  0  0  0  0  0  0  0  0  0  0
    1.3391    0.0583    4.7256 H   0  0  0  0  0  0  0  0  0  0  0  0
    5.0106    1.4075    5.7800 H   0  0  0  0  0  0  0  0  0  0  0  0
    5.2100   -1.2300    6.1773 H   0  0  0  0  0  0  0  0  0  0  0  0
    2.2129    1.4384    0.5257 H   0  0  0  0  0  0  0  0  0  0  0  0
    3.9085    1.3511    1.0852 H   0  0  0  0  0  0  0  0  0  0  0  0
    2.6910    2.1811    2.0838 H   0  0  0  0  0  0  0  0  0  0  0  0
    3.9070   -1.2288    0.9758 H   0  0  0  0  0  0  0  0  0  0  0  0
    2.5822   -2.1383    1.7627 H   0  0  0  0  0  0  0  0  0  0  0  0
    2.2539   -1.1650    0.3182 H   0  0  0  0  0  0  0  0  0  0  0  0
  1  2  1  0  0  0  0
  2  3  2  0  0  0  0
  2  6  1  0  0  0  0
  3  4  2  0  0  0  0
  4  5  1  0  0  0  0
  4 16  1  0  0  0  0
  5 17  1  0  0  0  0
  6  5  1  0  0  0  0
  7  6  1  0  0  0  0
  7  8  1  0  0  0  0
  8  9  2  0  0  0  0
  8 12  1  0  0  0  0
  9 10  2  0  0  0  0
 10 11  1  0  0  0  0
 10 18  1  0  0  0  0
 11 19  1  0  0  0  0
 12 11  1  0  0  0  0
 13 22  1  0  0  0  0
 13  7  1  0  0  0  0
 14 24  1  0  0  0  0
 14  7  1  0  0  0  0
 15  1  1  0  0  0  0
 20 13  1  0  0  0  0
 21 13  1  0  0  0  0
 23 14  1  0  0  0  0
 25 14  1  0  0  0  0
M  RAD  2   5   2  11   2
M  END
