114759784.xyz
 OpenBabel08132112083D
COc1c(S)ncnc1c1cscc1
 22 23  0  0  1  0  0  0  0  0999 V2000
   -2.9147    1.3729    1.6766 C   0  0  0  0  0  0  0  0  0  0  0  0
   -2.4073    0.0508    1.8761 O   0  0  0  0  0  0  0  0  0  0  0  0
   -1.1977    0.0067    2.5157 C   0  0  2  0  0  0  0  0  0  0  0  0
    0.0000   -0.0000    1.7704 C   0  0  0  0  0  0  0  0  0  0  0  0
    0.0000    0.0000    0.0000 S   0  0  0  0  0  0  0  0  0  0  0  0
    1.1929   -0.0000    2.3608 N   0  0  0  0  0  0  0  0  0  0  0  0
    1.1964    0.0016    3.6943 C   0  0  0  0  0  0  0  0  0  0  0  0
    0.1374   -0.0368    4.4903 N   0  0  0  0  0  0  0  0  0  0  0  0
   -1.0842   -0.0481    3.9177 C   0  0  0  0  0  0  0  0  0  0  0  0
   -2.2368   -0.1163    4.8321 C   0  0  0  0  0  0  0  0  0  0  0  0
   -3.5491   -0.3929    4.4908 C   0  0  0  0  0  0  0  0  0  0  0  0
   -4.5817   -0.4202    5.8680 S   0  0  0  0  0  0  0  0  0  0  0  0
   -3.2616   -0.0528    6.9325 C   0  0  0  0  0  0  0  0  0  0  0  0
   -2.0842    0.0737    6.2500 C   0  0  0  0  0  0  0  0  0  0  0  0
   -3.8809    1.2699    1.1649 H   0  0  0  0  0  0  0  0  0  0  0  0
   -2.2269    1.9630    1.0482 H   0  0  0  0  0  0  0  0  0  0  0  0
   -3.0637    1.8859    2.6407 H   0  0  0  0  0  0  0  0  0  0  0  0
   -1.3259   -0.2439   -0.1108 H   0  0  0  0  0  0  0  0  0  0  0  0
    2.1792    0.0280    4.1796 H   0  0  0  0  0  0  0  0  0  0  0  0
   -3.9396   -0.6120    3.5016 H   0  0  0  0  0  0  0  0  0  0  0  0
   -3.4340    0.0479    8.0028 H   0  0  0  0  0  0  0  0  0  0  0  0
   -1.1193    0.2909    6.7047 H   0  0  0  0  0  0  0  0  0  0  0  0
  1  2  1  0  0  0  0
  1 17  1  0  0  0  0
  3  2  1  6  0  0  0
  3  9  1  0  0  0  0
  4  6  2  0  0  0  0
  4  3  1  0  0  0  0
  5  4  1  0  0  0  0
  6  7  2  0  0  0  0
  7 19  1  0  0  0  0
  7  8  2  0  0  0  0
  9  8  2  0  0  0  0
  9 10  1  0  0  0  0
 10 14  1  0  0  0  0
 11 10  2  0  0  0  0
 11 12  1  0  0  0  0
 12 13  1  0  0  0  0
 13 21  1  0  0  0  0
 14 22  1  0  0  0  0
 14 13  2  0  0  0  0
 15  1  1  0  0  0  0
 16  1  1  0  0  0  0
 18  5  1  0  0  0  0
 20 11  1  0  0  0  0
M  END
