114707152.xyz
 OpenBabel08132112083D
Fc1ccc(c(c1)O)c1nnc([nH]1)S
 20 21  0  0  0  0  0  0  0  0999 V2000
    3.8802   -0.0004    8.4213 F   0  0  0  0  0  0  0  0  0  0  0  0
    3.1357   -0.0003    7.3091 C   0  0  0  0  0  0  0  0  0  0  0  0
    3.7834    0.0003    6.0695 C   0  0  0  0  0  0  0  0  0  0  0  0
    2.9951    0.0004    4.9256 C   0  0  0  0  0  0  0  0  0  0  0  0
    1.5906   -0.0001    4.9942 C   0  0  0  0  0  0  0  0  0  0  0  0
    0.9563   -0.0006    6.2731 C   0  0  0  0  0  0  0  0  0  0  0  0
    1.7552   -0.0008    7.4295 C   0  0  0  0  0  0  0  0  0  0  0  0
   -0.3653   -0.0010    6.4173 O   0  0  0  0  0  0  0  0  0  0  0  0
    0.7498   -0.0000    3.8099 C   0  0  0  0  0  0  0  0  0  0  0  0
   -0.5722   -0.0000    3.8284 N   0  0  0  0  0  0  0  0  0  0  0  0
   -1.0461   -0.0000    2.5451 N   0  0  0  0  0  0  0  0  0  0  0  0
    0.0000    0.0000    1.7564 C   0  0  0  0  0  0  0  0  0  0  0  0
    1.1580   -0.0000    2.4966 N   0  0  0  0  0  0  0  0  0  0  0  0
    0.0000    0.0000    0.0000 S   0  0  0  0  0  0  0  0  0  0  0  0
    4.8724    0.0007    6.0248 H   0  0  0  0  0  0  0  0  0  0  0  0
    3.4902    0.0009    3.9512 H   0  0  0  0  0  0  0  0  0  0  0  0
    1.2803   -0.0012    8.4105 H   0  0  0  0  0  0  0  0  0  0  0  0
   -0.7957   -0.0008    5.5156 H   0  0  0  0  0  0  0  0  0  0  0  0
    2.1072   -0.0001    2.1460 H   0  0  0  0  0  0  0  0  0  0  0  0
   -1.3505   -0.0002   -0.0606 H   0  0  0  0  0  0  0  0  0  0  0  0
  2  7  1  0  0  0  0
  2  1  1  0  0  0  0
  3  2  2  0  0  0  0
  4  5  2  0  0  0  0
  4  3  1  0  0  0  0
  5  6  1  0  0  0  0
  6  8  1  0  0  0  0
  6  7  2  0  0  0  0
  7 17  1  0  0  0  0
  9 10  2  0  0  0  0
  9  5  1  0  0  0  0
 11 10  1  0  0  0  0
 12 13  1  0  0  0  0
 12 11  2  0  0  0  0
 13  9  1  0  0  0  0
 14 12  1  0  0  0  0
 15  3  1  0  0  0  0
 16  4  1  0  0  0  0
 18  8  1  0  0  0  0
 19 13  1  0  0  0  0
 20 14  1  0  0  0  0
M  END
