114849407.xyz
 OpenBabel08132112083D
Brc1ccc(cc1)c1nccc(n1)S
 21 22  0  0  0  0  0  0  0  0999 V2000
    6.5639    0.0001    6.7193 Br  0  0  0  0  0  0  0  0  0  0  0  0
    4.8941   -0.0002    5.8046 C   0  0  0  0  0  0  0  0  0  0  0  0
    4.8751   -0.0001    4.4066 C   0  0  0  0  0  0  0  0  0  0  0  0
    3.6499   -0.0001    3.7430 C   0  0  0  0  0  0  0  0  0  0  0  0
    2.4436   -0.0002    4.4620 C   0  0  0  0  0  0  0  0  0  0  0  0
    2.4868   -0.0004    5.8660 C   0  0  0  0  0  0  0  0  0  0  0  0
    3.7055   -0.0004    6.5410 C   0  0  0  0  0  0  0  0  0  0  0  0
    1.1404    0.0000    3.7550 C   0  0  0  0  0  0  0  0  0  0  0  0
    0.0262   -0.0001    4.4992 N   0  0  0  0  0  0  0  0  0  0  0  0
   -1.1372   -0.0001    3.8466 C   0  0  0  0  0  0  0  0  0  0  0  0
   -1.2255    0.0000    2.4587 C   0  0  0  0  0  0  0  0  0  0  0  0
    0.0000   -0.0000    1.7686 C   0  0  0  0  0  0  0  0  0  0  0  0
    1.1631   -0.0000    2.4114 N   0  0  0  0  0  0  0  0  0  0  0  0
    0.0000    0.0000    0.0000 S   0  0  0  0  0  0  0  0  0  0  0  0
    5.8111    0.0000    3.8464 H   0  0  0  0  0  0  0  0  0  0  0  0
    3.6112   -0.0000    2.6536 H   0  0  0  0  0  0  0  0  0  0  0  0
    1.5456   -0.0005    6.4163 H   0  0  0  0  0  0  0  0  0  0  0  0
    3.7369   -0.0005    7.6314 H   0  0  0  0  0  0  0  0  0  0  0  0
   -2.0462   -0.0001    4.4593 H   0  0  0  0  0  0  0  0  0  0  0  0
   -2.1850    0.0001    1.9404 H   0  0  0  0  0  0  0  0  0  0  0  0
    1.3483   -0.0002   -0.0975 H   0  0  0  0  0  0  0  0  0  0  0  0
  2  7  2  0  0  0  0
  2  1  1  0  0  0  0
  3  2  1  0  0  0  0
  4  3  2  0  0  0  0
  4  5  1  0  0  0  0
  5  6  2  0  0  0  0
  6 17  1  0  0  0  0
  6  7  1  0  0  0  0
  7 18  1  0  0  0  0
  8  5  1  0  0  0  0
  8  9  2  0  0  0  0
 10 19  1  0  0  0  0
 10  9  2  0  0  0  0
 11 10  1  0  0  0  0
 12 13  2  0  0  0  0
 12 11  1  0  0  0  0
 13  8  2  0  0  0  0
 14 12  1  0  0  0  0
 15  3  1  0  0  0  0
 16  4  1  0  0  0  0
 20 11  1  0  0  0  0
 21 14  1  0  0  0  0
M  RAD  1  11   2
M  END
