114802924.xyz
 OpenBabel08132112083D
Brc1cnc(nc1S)C1CCC1
 21 22  0  0  1  0  0  0  0  0999 V2000
   -2.9251    0.0003    1.9316 Br  0  0  0  0  0  0  0  0  0  0  0  0
   -1.1442    0.0002    2.5925 C   0  0  2  0  0  0  0  0  0  0  0  0
   -0.9223    0.0002    3.9691 C   0  0  0  0  0  0  0  0  0  0  0  0
    0.2995   -0.0000    4.5002 N   0  0  0  0  0  0  0  0  0  0  0  0
    1.3319   -0.0002    3.6462 C   0  0  0  0  0  0  0  0  0  0  0  0
    1.2113   -0.0000    2.3132 N   0  0  0  0  0  0  0  0  0  0  0  0
   -0.0000    0.0000    1.7631 C   0  0  0  0  0  0  0  0  0  0  0  0
    0.0000    0.0000    0.0000 S   0  0  0  0  0  0  0  0  0  0  0  0
    2.7202    0.0001    4.2122 C   0  0  0  0  0  0  0  0  0  0  0  0
    3.6637   -1.0852    3.5994 C   0  0  0  0  0  0  0  0  0  0  0  0
    4.3678    0.0050    2.7561 C   0  0  0  0  0  0  0  0  0  0  0  0
    3.6611    1.0902    3.6038 C   0  0  0  0  0  0  0  0  0  0  0  0
   -1.7743    0.0005    4.6578 H   0  0  0  0  0  0  0  0  0  0  0  0
   -1.3446   -0.0001   -0.1481 H   0  0  0  0  0  0  0  0  0  0  0  0
    2.6342   -0.0019    5.3059 H   0  0  0  0  0  0  0  0  0  0  0  0
    3.1652   -1.8931    3.0445 H   0  0  0  0  0  0  0  0  0  0  0  0
    4.3152   -1.5299    4.3661 H   0  0  0  0  0  0  0  0  0  0  0  0
    5.4681    0.0064    2.7661 H   0  0  0  0  0  0  0  0  0  0  0  0
    4.0177    0.0067    1.7150 H   0  0  0  0  0  0  0  0  0  0  0  0
    4.3115    1.5332    4.3724 H   0  0  0  0  0  0  0  0  0  0  0  0
    3.1609    1.8994    3.0522 H   0  0  0  0  0  0  0  0  0  0  0  0
  2  1  1  6  0  0  0
  2  3  1  0  0  0  0
  3  4  2  0  0  0  0
  3 13  1  0  0  0  0
  5  9  1  0  0  0  0
  5  4  2  0  0  0  0
  6  5  2  0  0  0  0
  7  6  2  0  0  0  0
  7  2  1  0  0  0  0
  8  7  1  0  0  0  0
  9 15  1  0  0  0  0
 10  9  1  0  0  0  0
 10 17  1  0  0  0  0
 11 18  1  0  0  0  0
 11 10  1  0  0  0  0
 11 12  1  0  0  0  0
 12  9  1  0  0  0  0
 12 20  1  0  0  0  0
 14  8  1  0  0  0  0
 16 10  1  0  0  0  0
 19 11  1  0  0  0  0
 21 12  1  0  0  0  0
M  RAD  1   2   2
M  END
