114855232.xyz
 OpenBabel08132112083D
O=C1NC(=NC1c1cncc(c1)Br)S
 20 21  0  0  1  0  0  0  0  0999 V2000
   -1.8385   -0.0321    4.6603 O   0  0  0  0  0  0  0  0  0  0  0  0
   -1.0071   -0.0166    3.7904 C   0  0  0  0  0  0  0  0  0  0  0  0
   -1.2296    0.0028    2.4179 N   0  0  0  0  0  0  0  0  0  0  0  0
    0.0000    0.0000    1.7598 C   0  0  0  0  0  0  0  0  0  0  0  0
    1.0302    0.0000    2.5179 N   0  0  0  0  0  0  0  0  0  0  0  0
    0.5384    0.0035    3.8928 C   0  0  2  0  0  0  0  0  0  0  0  0
    1.0851   -1.1276    4.7405 C   0  0  2  0  0  0  0  0  0  0  0  0
    0.6808   -1.2814    6.0762 C   0  0  0  0  0  0  0  0  0  0  0  0
    1.1296   -2.2575    6.8649 N   0  0  0  0  0  0  0  0  0  0  0  0
    2.0048   -3.1336    6.3723 C   0  0  0  0  0  0  0  0  0  0  0  0
    2.4651   -3.0580    5.0535 C   0  0  0  0  0  0  0  0  0  0  0  0
    2.0032   -2.0416    4.2183 C   0  0  0  0  0  0  0  0  0  0  0  0
    3.7161   -4.3383    4.4086 Br  0  0  0  0  0  0  0  0  0  0  0  0
    0.0000    0.0000    0.0000 S   0  0  0  0  0  0  0  0  0  0  0  0
   -2.1494   -0.0199    1.9915 H   0  0  0  0  0  0  0  0  0  0  0  0
    0.8114    0.9638    4.3709 H   0  0  0  0  0  0  0  0  0  0  0  0
   -0.0476   -0.5888    6.5094 H   0  0  0  0  0  0  0  0  0  0  0  0
    2.3600   -3.9270    7.0380 H   0  0  0  0  0  0  0  0  0  0  0  0
    2.3426   -1.9456    3.1871 H   0  0  0  0  0  0  0  0  0  0  0  0
    1.3500   -0.0033   -0.0718 H   0  0  0  0  0  0  0  0  0  0  0  0
  2  6  1  0  0  0  0
  2  1  2  0  0  0  0
  3  2  1  0  0  0  0
  4  3  1  0  0  0  0
  4  5  2  0  0  0  0
  5  6  1  0  0  0  0
  6 16  1  1  0  0  0
  6  7  1  0  0  0  0
  7 12  1  1  0  0  0
  7  8  1  0  0  0  0
  8 17  1  0  0  0  0
  8  9  2  0  0  0  0
 10  9  2  0  0  0  0
 10 18  1  0  0  0  0
 11 10  1  0  0  0  0
 12 11  2  0  0  0  0
 13 11  1  0  0  0  0
 14  4  1  0  0  0  0
 15  3  1  0  0  0  0
 19 12  1  0  0  0  0
 20 14  1  0  0  0  0
M  RAD  1   7   2
M  END
