114879383.xyz
 OpenBabel08132112083D
Clc1cc(cc(c1)Br)NC(=O)C(S)C
 23 23  0  0  1  0  0  0  0  0999 V2000
   -4.1411    4.7368    5.1458 Cl  0  0  0  0  0  0  0  0  0  0  0  0
   -4.0229    3.9938    3.5699 C   0  0  0  0  0  0  0  0  0  0  0  0
   -2.9925    3.0831    3.3340 C   0  0  0  0  0  0  0  0  0  0  0  0
   -2.8994    2.4867    2.0656 C   0  0  0  0  0  0  0  0  0  0  0  0
   -3.8332    2.8122    1.0649 C   0  0  0  0  0  0  0  0  0  0  0  0
   -4.8452    3.7267    1.3438 C   0  0  0  0  0  0  0  0  0  0  0  0
   -4.9632    4.3351    2.5947 C   0  0  0  0  0  0  0  0  0  0  0  0
   -6.1030    4.1590   -0.0202 Br  0  0  0  0  0  0  0  0  0  0  0  0
   -1.9029    1.5603    1.7316 N   0  0  0  0  0  0  0  0  0  0  0  0
   -0.8805    1.0861    2.5071 C   0  0  0  0  0  0  0  0  0  0  0  0
   -0.6654    1.4244    3.6564 O   0  0  0  0  0  0  0  0  0  0  0  0
    0.0000    0.0000    1.8469 C   0  0  1  0  0  0  0  0  0  0  0  0
    0.0000    0.0000    0.0000 S   0  0  0  0  0  0  0  0  0  0  0  0
    1.4062   -0.0000    2.4374 C   0  0  0  0  0  0  0  0  0  0  0  0
   -2.2717    2.8353    4.1072 H   0  0  0  0  0  0  0  0  0  0  0  0
   -3.7675    2.3520    0.0777 H   0  0  0  0  0  0  0  0  0  0  0  0
   -5.7563    5.0498    2.8083 H   0  0  0  0  0  0  0  0  0  0  0  0
   -1.9099    1.2078    0.7762 H   0  0  0  0  0  0  0  0  0  0  0  0
   -0.4922   -0.9604    2.0816 H   0  0  0  0  0  0  0  0  0  0  0  0
    0.6867    1.1587   -0.1459 H   0  0  0  0  0  0  0  0  0  0  0  0
    1.9390    0.9281    2.1769 H   0  0  0  0  0  0  0  0  0  0  0  0
    1.3464   -0.0535    3.5330 H   0  0  0  0  0  0  0  0  0  0  0  0
    1.9831   -0.8537    2.0568 H   0  0  0  0  0  0  0  0  0  0  0  0
  2  1  1  0  0  0  0
  3  2  1  0  0  0  0
  3 15  1  0  0  0  0
  4  3  2  0  0  0  0
  5  6  2  0  0  0  0
  5  4  1  0  0  0  0
  6  7  1  0  0  0  0
  7 17  1  0  0  0  0
  7  2  2  0  0  0  0
  8  6  1  0  0  0  0
  9  4  1  0  0  0  0
  9 10  1  0  0  0  0
 10 11  2  0  0  0  0
 12 19  1  1  0  0  0
 12 14  1  0  0  0  0
 12 10  1  0  0  0  0
 13 12  1  0  0  0  0
 14 22  1  0  0  0  0
 16  5  1  0  0  0  0
 18  9  1  0  0  0  0
 20 13  1  0  0  0  0
 21 14  1  0  0  0  0
 23 14  1  0  0  0  0
M  END
