1153866.xyz
 OpenBabel08132112083D
Sc1nnc(n1/N=C/c1ccc(cc1)[N+](=O)[O-])c1[nH]nc(c1)c1ccccc1
 41 44  0  0  0  0  0  0  0  0999 V2000
    0.0000    0.0000    0.0000 S   0  0  0  0  0  0  0  0  0  0  0  0
   -0.0000   -0.0000    1.7637 C   0  0  0  0  0  0  0  0  0  0  0  0
   -1.0897    0.0019    2.4881 N   0  0  0  0  0  0  0  0  0  0  0  0
   -0.7503    0.0010    3.8081 N   0  0  0  0  0  0  0  0  0  0  0  0
    0.5638    0.0228    3.8935 C   0  0  0  0  0  0  0  0  0  0  0  0
    1.1130   -0.0000    2.6200 N   0  0  0  0  0  0  0  0  0  0  0  0
    2.4623    0.0665    2.4335 N   0  0  0  0  0  0  0  0  0  0  0  0
    3.0000   -0.3057    1.3288 C   0  0  0  0  0  0  0  0  0  0  0  0
    4.4502   -0.2048    1.1419 C   0  0  0  0  0  0  0  0  0  0  0  0
    5.2747    0.4862    2.0522 C   0  0  0  0  0  0  0  0  0  0  0  0
    6.6485    0.5455    1.8528 C   0  0  0  0  0  0  0  0  0  0  0  0
    7.1921   -0.0853    0.7311 C   0  0  0  0  0  0  0  0  0  0  0  0
    6.4038   -0.7659   -0.1946 C   0  0  0  0  0  0  0  0  0  0  0  0
    5.0279   -0.8184    0.0156 C   0  0  0  0  0  0  0  0  0  0  0  0
    8.6540   -0.0209    0.5133 N   0  0  0  0  0  0  0  0  0  0  0  0
    9.3161    0.5863    1.3372 O   0  0  0  0  0  0  0  0  0  0  0  0
    9.0978   -0.5797   -0.4754 O   0  0  0  0  0  0  0  0  0  0  0  0
    1.3068    0.0469    5.1347 C   0  0  0  0  0  0  0  0  0  0  0  0
    2.6679    0.0193    5.2446 N   0  0  0  0  0  0  0  0  0  0  0  0
    3.0894    0.0516    6.5051 N   0  0  0  0  0  0  0  0  0  0  0  0
    1.9794    0.1011    7.2597 C   0  0  0  0  0  0  0  0  0  0  0  0
    0.8221    0.0993    6.4373 C   0  0  0  0  0  0  0  0  0  0  0  0
    2.0626    0.1478    8.7286 C   0  0  0  0  0  0  0  0  0  0  0  0
    0.9017    0.2035    9.5175 C   0  0  0  0  0  0  0  0  0  0  0  0
    0.9891    0.2477   10.9098 C   0  0  0  0  0  0  0  0  0  0  0  0
    2.2378    0.2370   11.5370 C   0  0  0  0  0  0  0  0  0  0  0  0
    3.3994    0.1816   10.7596 C   0  0  0  0  0  0  0  0  0  0  0  0
    3.3145    0.1373    9.3689 C   0  0  0  0  0  0  0  0  0  0  0  0
    0.3171    1.3108   -0.1565 H   0  0  0  0  0  0  0  0  0  0  0  0
    2.4110   -0.7056    0.4952 H   0  0  0  0  0  0  0  0  0  0  0  0
    4.8238    0.9923    2.9068 H   0  0  0  0  0  0  0  0  0  0  0  0
    7.3091    1.0735    2.5393 H   0  0  0  0  0  0  0  0  0  0  0  0
    6.8768   -1.2372   -1.0550 H   0  0  0  0  0  0  0  0  0  0  0  0
    4.3914   -1.3476   -0.6973 H   0  0  0  0  0  0  0  0  0  0  0  0
    3.3136   -0.0131    4.4646 H   0  0  0  0  0  0  0  0  0  0  0  0
   -0.2253    0.1315    6.7196 H   0  0  0  0  0  0  0  0  0  0  0  0
   -0.0806    0.2125    9.0413 H   0  0  0  0  0  0  0  0  0  0  0  0
    0.0757    0.2908   11.5079 H   0  0  0  0  0  0  0  0  0  0  0  0
    2.3059    0.2715   12.6270 H   0  0  0  0  0  0  0  0  0  0  0  0
    4.3799    0.1726   11.2422 H   0  0  0  0  0  0  0  0  0  0  0  0
    4.2155    0.0937    8.7555 H   0  0  0  0  0  0  0  0  0  0  0  0
  1  2  1  0  0  0  0
  2  3  2  0  0  0  0
  2  6  1  0  0  0  0
  3  4  1  0  0  0  0
  4  5  2  0  0  0  0
  5 18  1  0  0  0  0
  6  5  1  0  0  0  0
  7  6  1  0  0  0  0
  8  7  2  0  0  0  0
  9  8  1  0  0  0  0
  9 10  2  0  0  0  0
 10 31  1  0  0  0  0
 11 10  1  0  0  0  0
 11 32  1  0  0  0  0
 12 11  2  0  0  0  0
 13 14  2  0  0  0  0
 13 12  1  0  0  0  0
 14  9  1  0  0  0  0
 15 12  1  0  0  0  0
 15 16  2  0  0  0  0
 17 15  2  0  0  0  0
 18 19  1  0  0  0  0
 18 22  2  0  0  0  0
 19 20  1  0  0  0  0
 20 21  2  0  0  0  0
 21 23  1  0  0  0  0
 22 36  1  0  0  0  0
 22 21  1  0  0  0  0
 23 28  2  0  0  0  0
 23 24  1  0  0  0  0
 24 25  2  0  0  0  0
 25 38  1  0  0  0  0
 25 26  1  0  0  0  0
 26 39  1  0  0  0  0
 27 40  1  0  0  0  0
 27 26  2  0  0  0  0
 28 27  1  0  0  0  0
 29  1  1  0  0  0  0
 30  8  1  0  0  0  0
 33 13  1  0  0  0  0
 34 14  1  0  0  0  0
 35 19  1  0  0  0  0
 37 24  1  0  0  0  0
 41 28  1  0  0  0  0
M  END
