1155146.xyz
 OpenBabel08132112083D
COc1cc(/C=N/n2c(S)nnc2c2n[nH]c3c2CCC3)cc(c1O)OC
 45 48  0  0  0  0  0  0  0  0999 V2000
    4.5707   -0.1190   -2.7830 C   0  0  0  0  0  0  0  0  0  0  0  0
    5.7988   -0.0884   -2.0917 O   0  0  0  0  0  0  0  0  0  0  0  0
    5.7733   -0.0510   -0.7401 C   0  0  0  0  0  0  0  0  0  0  0  0
    4.6167   -0.0404    0.0392 C   0  0  0  0  0  0  0  0  0  0  0  0
    4.7002   -0.0003    1.4428 C   0  0  0  0  0  0  0  0  0  0  0  0
    3.5003    0.0126    2.2757 C   0  0  0  0  0  0  0  0  0  0  0  0
    2.3402   -0.0099    1.7267 N   0  0  0  0  0  0  0  0  0  0  0  0
    1.1860   -0.0000    2.4575 N   0  0  0  0  0  0  0  0  0  0  0  0
    0.0000   -0.0000    1.7536 C   0  0  0  0  0  0  0  0  0  0  0  0
    0.0000    0.0000    0.0000 S   0  0  0  0  0  0  0  0  0  0  0  0
   -1.0309    0.0005    2.5592 N   0  0  0  0  0  0  0  0  0  0  0  0
   -0.5400   -0.0008    3.8342 N   0  0  0  0  0  0  0  0  0  0  0  0
    0.7791   -0.0013    3.8033 C   0  0  0  0  0  0  0  0  0  0  0  0
    1.5225   -0.0084    5.0568 C   0  0  0  0  0  0  0  0  0  0  0  0
    2.8564    0.0424    5.2042 N   0  0  0  0  0  0  0  0  0  0  0  0
    3.0814    0.0268    6.5341 N   0  0  0  0  0  0  0  0  0  0  0  0
    1.9259   -0.0440    7.2421 C   0  0  0  0  0  0  0  0  0  0  0  0
    0.8948   -0.0678    6.3334 C   0  0  0  0  0  0  0  0  0  0  0  0
   -0.4380   -0.0968    7.0185 C   0  0  0  0  0  0  0  0  0  0  0  0
   -0.0347   -0.4133    8.4963 C   0  0  0  0  0  0  0  0  0  0  0  0
    1.4767   -0.0420    8.6704 C   0  0  0  0  0  0  0  0  0  0  0  0
    5.9553    0.0291    2.0750 C   0  0  0  0  0  0  0  0  0  0  0  0
    7.1108    0.0184    1.2944 C   0  0  0  0  0  0  0  0  0  0  0  0
    7.0376   -0.0213   -0.1096 C   0  0  0  0  0  0  0  0  0  0  0  0
    8.1625   -0.0313   -0.8508 O   0  0  0  0  0  0  0  0  0  0  0  0
    8.3959    0.0437    1.7651 O   0  0  0  0  0  0  0  0  0  0  0  0
    8.6085    0.0850    3.1572 C   0  0  0  0  0  0  0  0  0  0  0  0
    3.9779   -1.0146   -2.5245 H   0  0  0  0  0  0  0  0  0  0  0  0
    4.8154   -0.1460   -3.8528 H   0  0  0  0  0  0  0  0  0  0  0  0
    3.9610    0.7781   -2.5736 H   0  0  0  0  0  0  0  0  0  0  0  0
    3.6274   -0.0627   -0.4126 H   0  0  0  0  0  0  0  0  0  0  0  0
    3.6326    0.0414    3.3656 H   0  0  0  0  0  0  0  0  0  0  0  0
   -1.3533   -0.0004   -0.0400 H   0  0  0  0  0  0  0  0  0  0  0  0
    4.0355    0.0512    6.8692 H   0  0  0  0  0  0  0  0  0  0  0  0
   -0.9475    0.8775    6.9234 H   0  0  0  0  0  0  0  0  0  0  0  0
   -1.1264   -0.8417    6.5951 H   0  0  0  0  0  0  0  0  0  0  0  0
   -0.6704    0.1037    9.2296 H   0  0  0  0  0  0  0  0  0  0  0  0
   -0.1505   -1.4939    8.6735 H   0  0  0  0  0  0  0  0  0  0  0  0
    2.0127   -0.7579    9.3138 H   0  0  0  0  0  0  0  0  0  0  0  0
    1.6055    0.9574    9.1237 H   0  0  0  0  0  0  0  0  0  0  0  0
    6.0081    0.0601    3.1628 H   0  0  0  0  0  0  0  0  0  0  0  0
    8.9057   -0.0067   -0.2260 H   0  0  0  0  0  0  0  0  0  0  0  0
    8.1842   -0.8035    3.6579 H   0  0  0  0  0  0  0  0  0  0  0  0
    8.1674    0.9922    3.6072 H   0  0  0  0  0  0  0  0  0  0  0  0
    9.6952    0.0996    3.3122 H   0  0  0  0  0  0  0  0  0  0  0  0
  1 30  1  0  0  0  0
  1 28  1  0  0  0  0
  1  2  1  0  0  0  0
  2  3  1  0  0  0  0
  3 24  2  0  0  0  0
  3  4  1  0  0  0  0
  4  5  2  0  0  0  0
  5 22  1  0  0  0  0
  5  6  1  0  0  0  0
  6 32  1  0  0  0  0
  7  6  2  0  0  0  0
  7  8  1  0  0  0  0
  8 13  1  0  0  0  0
  9  8  1  0  0  0  0
  9 11  2  0  0  0  0
 10  9  1  0  0  0  0
 11 12  1  0  0  0  0
 13 12  2  0  0  0  0
 13 14  1  0  0  0  0
 14 15  2  0  0  0  0
 14 18  1  0  0  0  0
 15 16  1  0  0  0  0
 16 34  1  0  0  0  0
 16 17  1  0  0  0  0
 17 21  1  0  0  0  0
 18 19  1  0  0  0  0
 18 17  2  0  0  0  0
 19 20  1  0  0  0  0
 20 21  1  0  0  0  0
 20 38  1  0  0  0  0
 20 37  1  0  0  0  0
 21 40  1  0  0  0  0
 21 39  1  0  0  0  0
 22 41  1  0  0  0  0
 23 26  1  0  0  0  0
 23 22  2  0  0  0  0
 24 23  1  0  0  0  0
 25 42  1  0  0  0  0
 25 24  1  0  0  0  0
 26 27  1  0  0  0  0
 27 45  1  0  0  0  0
 27 44  1  0  0  0  0
 27 43  1  0  0  0  0
 29  1  1  0  0  0  0
 31  4  1  0  0  0  0
 33 10  1  0  0  0  0
 35 19  1  0  0  0  0
 36 19  1  0  0  0  0
M  END
