1185065.xyz
 OpenBabel08132112083D
O=c1[nH]c(=O)n(c2c1n(Cc1ccccc1)c(n2)S)C
 32 34  0  0  1  0  0  0  0  0999 V2000
    2.7295    0.0196    5.1918 O   0  0  0  0  0  0  0  0  0  0  0  0
    1.5154    0.0083    5.0396 C   0  0  0  0  0  0  0  0  0  0  0  0
    0.6367   -0.0048    6.1376 N   0  0  0  0  0  0  0  0  0  0  0  0
   -0.7608   -0.0186    6.1796 C   0  0  0  0  0  0  0  0  0  0  0  0
   -1.3670   -0.0304    7.2312 O   0  0  0  0  0  0  0  0  0  0  0  0
   -1.3873   -0.0178    4.9317 N   0  0  0  0  0  0  0  0  0  0  0  0
   -0.6217   -0.0028    3.7895 C   0  0  0  0  0  0  0  0  0  0  0  0
    0.7662    0.0133    3.8162 C   0  0  2  0  0  0  0  0  0  0  0  0
    1.1547    0.0000    2.4795 N   0  0  0  0  0  0  0  0  0  0  0  0
    2.5323    0.0598    1.9802 C   0  0  0  0  0  0  0  0  0  0  0  0
    3.0055    1.4766    1.7387 C   0  0  0  0  0  0  0  0  0  0  0  0
    3.4382    2.2609    2.8188 C   0  0  0  0  0  0  0  0  0  0  0  0
    3.8382    3.5818    2.6095 C   0  0  0  0  0  0  0  0  0  0  0  0
    3.8134    4.1305    1.3232 C   0  0  0  0  0  0  0  0  0  0  0  0
    3.3911    3.3511    0.2436 C   0  0  0  0  0  0  0  0  0  0  0  0
    2.9888    2.0291    0.4516 C   0  0  0  0  0  0  0  0  0  0  0  0
    0.0000    0.0000    1.7580 C   0  0  0  0  0  0  0  0  0  0  0  0
   -1.0944   -0.0085    2.5183 N   0  0  0  0  0  0  0  0  0  0  0  0
    0.0000    0.0000    0.0000 S   0  0  0  0  0  0  0  0  0  0  0  0
   -2.8409   -0.0306    4.8440 C   0  0  0  0  0  0  0  0  0  0  0  0
    1.0778   -0.0068    7.0534 H   0  0  0  0  0  0  0  0  0  0  0  0
    2.5710   -0.5316    1.0535 H   0  0  0  0  0  0  0  0  0  0  0  0
    3.1555   -0.4314    2.7379 H   0  0  0  0  0  0  0  0  0  0  0  0
    3.4639    1.8212    3.8188 H   0  0  0  0  0  0  0  0  0  0  0  0
    4.1767    4.1855    3.4551 H   0  0  0  0  0  0  0  0  0  0  0  0
    4.1286    5.1642    1.1619 H   0  0  0  0  0  0  0  0  0  0  0  0
    3.3756    3.7718   -0.7646 H   0  0  0  0  0  0  0  0  0  0  0  0
    2.6612    1.4223   -0.3963 H   0  0  0  0  0  0  0  0  0  0  0  0
   -1.3278   -0.2432   -0.0600 H   0  0  0  0  0  0  0  0  0  0  0  0
   -3.2343   -0.0441    5.8659 H   0  0  0  0  0  0  0  0  0  0  0  0
   -3.1803   -0.9205    4.2937 H   0  0  0  0  0  0  0  0  0  0  0  0
   -3.1974    0.8631    4.3110 H   0  0  0  0  0  0  0  0  0  0  0  0
  2  1  2  0  0  0  0
  2  3  1  0  0  0  0
  3  4  1  0  0  0  0
  3 21  1  0  0  0  0
  4  5  2  0  0  0  0
  6  4  1  0  0  0  0
  7  6  1  0  0  0  0
  8  7  1  1  0  0  0
  8  2  1  0  0  0  0
  9  8  1  0  0  0  0
 10  9  1  0  0  0  0
 10 23  1  0  0  0  0
 11 10  1  0  0  0  0
 11 12  2  0  0  0  0
 12 24  1  0  0  0  0
 13 12  1  0  0  0  0
 13 25  1  0  0  0  0
 14 13  2  0  0  0  0
 15 16  2  0  0  0  0
 15 14  1  0  0  0  0
 16 11  1  0  0  0  0
 17  9  1  0  0  0  0
 17 18  2  0  0  0  0
 18  7  2  0  0  0  0
 19 17  1  0  0  0  0
 20  6  1  0  0  0  0
 20 30  1  0  0  0  0
 22 10  1  0  0  0  0
 26 14  1  0  0  0  0
 27 15  1  0  0  0  0
 28 16  1  0  0  0  0
 29 19  1  0  0  0  0
 31 20  1  0  0  0  0
 32 20  1  0  0  0  0
M  RAD  1   8   2
M  END
