1470990.xyz
 OpenBabel08132112083D
Sc1nnc(n1c1ccccc1C)Cc1cccs1
 32 34  0  0  0  0  0  0  0  0999 V2000
    0.0000    0.0000    0.0000 S   0  0  0  0  0  0  0  0  0  0  0  0
   -0.0000    0.0000    1.7602 C   0  0  0  0  0  0  0  0  0  0  0  0
    1.0742    0.0000    2.5077 N   0  0  0  0  0  0  0  0  0  0  0  0
    0.6643    0.0899    3.8166 N   0  0  0  0  0  0  0  0  0  0  0  0
   -0.6441    0.1369    3.8368 C   0  0  0  0  0  0  0  0  0  0  0  0
   -1.1346    0.0835    2.5437 N   0  0  0  0  0  0  0  0  0  0  0  0
   -2.4941    0.1464    2.1123 C   0  0  0  0  0  0  0  0  0  0  0  0
   -3.2452   -1.0303    2.0468 C   0  0  0  0  0  0  0  0  0  0  0  0
   -4.5781   -0.9802    1.6401 C   0  0  0  0  0  0  0  0  0  0  0  0
   -5.1480    0.2497    1.3023 C   0  0  0  0  0  0  0  0  0  0  0  0
   -4.3866    1.4196    1.3645 C   0  0  0  0  0  0  0  0  0  0  0  0
   -3.0440    1.3955    1.7669 C   0  0  0  0  0  0  0  0  0  0  0  0
   -2.2035    2.6428    1.8096 C   0  0  0  0  0  0  0  0  0  0  0  0
   -1.5000    0.2133    5.0613 C   0  0  0  0  0  0  0  0  0  0  0  0
   -2.4602   -0.9350    5.2064 C   0  0  0  0  0  0  0  0  0  0  0  0
   -3.8250   -0.8868    5.3439 C   0  0  0  0  0  0  0  0  0  0  0  0
   -4.4328   -2.1793    5.3925 C   0  0  0  0  0  0  0  0  0  0  0  0
   -3.5175   -3.1944    5.2850 C   0  0  0  0  0  0  0  0  0  0  0  0
   -1.9017   -2.5851    5.1329 S   0  0  0  0  0  0  0  0  0  0  0  0
   -1.2649   -0.4669   -0.1204 H   0  0  0  0  0  0  0  0  0  0  0  0
   -2.7804   -1.9719    2.3420 H   0  0  0  0  0  0  0  0  0  0  0  0
   -5.1693   -1.8970    1.5999 H   0  0  0  0  0  0  0  0  0  0  0  0
   -6.1928    0.3007    0.9871 H   0  0  0  0  0  0  0  0  0  0  0  0
   -4.8395    2.3766    1.0935 H   0  0  0  0  0  0  0  0  0  0  0  0
   -2.8125    3.5375    1.6210 H   0  0  0  0  0  0  0  0  0  0  0  0
   -1.7010    2.7624    2.7822 H   0  0  0  0  0  0  0  0  0  0  0  0
   -1.4085    2.5987    1.0469 H   0  0  0  0  0  0  0  0  0  0  0  0
   -0.8026    0.2694    5.9111 H   0  0  0  0  0  0  0  0  0  0  0  0
   -2.0895    1.1448    5.0583 H   0  0  0  0  0  0  0  0  0  0  0  0
   -4.3799    0.0520    5.3816 H   0  0  0  0  0  0  0  0  0  0  0  0
   -5.5056   -2.3458    5.4991 H   0  0  0  0  0  0  0  0  0  0  0  0
   -3.6961   -4.2684    5.2999 H   0  0  0  0  0  0  0  0  0  0  0  0
  1  2  1  0  0  0  0
  2  3  2  0  0  0  0
  2  6  1  0  0  0  0
  3  4  1  0  0  0  0
  4  5  2  0  0  0  0
  5 14  1  0  0  0  0
  6  5  1  0  0  0  0
  7  6  1  0  0  0  0
  8  7  1  0  0  0  0
  8 21  1  0  0  0  0
  9  8  2  0  0  0  0
 10 11  2  0  0  0  0
 10  9  1  0  0  0  0
 11 12  1  0  0  0  0
 12 13  1  0  0  0  0
 12  7  2  0  0  0  0
 13 26  1  0  0  0  0
 14 15  1  0  0  0  0
 14 28  1  0  0  0  0
 15 16  2  0  0  0  0
 16 30  1  0  0  0  0
 16 17  1  0  0  0  0
 17 31  1  0  0  0  0
 18 32  1  0  0  0  0
 18 17  2  0  0  0  0
 19 15  1  0  0  0  0
 19 18  1  0  0  0  0
 20  1  1  0  0  0  0
 22  9  1  0  0  0  0
 23 10  1  0  0  0  0
 24 11  1  0  0  0  0
 25 13  1  0  0  0  0
 27 13  1  0  0  0  0
 29 14  1  0  0  0  0
M  END
