1510260.xyz
 OpenBabel08132112083D
Cc1ccc(c(c1)OCc1nnc(o1)S)C(C)C
 34 35  0  0  0  0  0  0  0  0999 V2000
    5.5564    0.1112    8.3890 C   0  0  0  0  0  0  0  0  0  0  0  0
    5.2335   -0.7888    7.2233 C   0  0  0  0  0  0  0  0  0  0  0  0
    6.0369   -1.8810    6.8940 C   0  0  0  0  0  0  0  0  0  0  0  0
    5.7154   -2.7005    5.8044 C   0  0  0  0  0  0  0  0  0  0  0  0
    4.5929   -2.4684    5.0097 C   0  0  0  0  0  0  0  0  0  0  0  0
    3.7833   -1.3603    5.3528 C   0  0  0  0  0  0  0  0  0  0  0  0
    4.0969   -0.5360    6.4348 C   0  0  0  0  0  0  0  0  0  0  0  0
    2.6869   -1.1677    4.5575 O   0  0  0  0  0  0  0  0  0  0  0  0
    1.9008   -0.0126    4.7341 C   0  0  0  0  0  0  0  0  0  0  0  0
    0.8415   -0.0120    3.6938 C   0  0  0  0  0  0  0  0  0  0  0  0
   -0.4405   -0.0153    3.8453 N   0  0  0  0  0  0  0  0  0  0  0  0
   -1.0001   -0.0024    2.5739 N   0  0  0  0  0  0  0  0  0  0  0  0
   -0.0000   -0.0000    1.7471 C   0  0  0  0  0  0  0  0  0  0  0  0
    1.2001   -0.0000    2.3746 O   0  0  0  0  0  0  0  0  0  0  0  0
    0.0000    0.0000    0.0000 S   0  0  0  0  0  0  0  0  0  0  0  0
    4.1944   -3.3503    3.8377 C   0  0  0  0  0  0  0  0  0  0  0  0
    3.0344   -4.2822    4.2322 C   0  0  0  0  0  0  0  0  0  0  0  0
    5.3586   -4.1484    3.2462 C   0  0  0  0  0  0  0  0  0  0  0  0
    6.4614   -0.2235    8.9162 H   0  0  0  0  0  0  0  0  0  0  0  0
    5.7231    1.1502    8.0588 H   0  0  0  0  0  0  0  0  0  0  0  0
    4.7295    0.1340    9.1183 H   0  0  0  0  0  0  0  0  0  0  0  0
    6.9265   -2.0984    7.4900 H   0  0  0  0  0  0  0  0  0  0  0  0
    6.3678   -3.5434    5.5709 H   0  0  0  0  0  0  0  0  0  0  0  0
    3.4606    0.3124    6.6896 H   0  0  0  0  0  0  0  0  0  0  0  0
    2.5232    0.8979    4.6442 H   0  0  0  0  0  0  0  0  0  0  0  0
    1.3964    0.0056    5.7148 H   0  0  0  0  0  0  0  0  0  0  0  0
   -1.3514   -0.0081   -0.0540 H   0  0  0  0  0  0  0  0  0  0  0  0
    3.8133   -2.6741    3.0543 H   0  0  0  0  0  0  0  0  0  0  0  0
    2.7005   -4.8787    3.3676 H   0  0  0  0  0  0  0  0  0  0  0  0
    2.1743   -3.7071    4.6032 H   0  0  0  0  0  0  0  0  0  0  0  0
    3.3512   -4.9788    5.0257 H   0  0  0  0  0  0  0  0  0  0  0  0
    5.0327   -4.6746    2.3355 H   0  0  0  0  0  0  0  0  0  0  0  0
    6.2058   -3.4976    2.9793 H   0  0  0  0  0  0  0  0  0  0  0  0
    5.7272   -4.9146    3.9477 H   0  0  0  0  0  0  0  0  0  0  0  0
  1 19  1  0  0  0  0
  1 21  1  0  0  0  0
  2  1  1  0  0  0  0
  3  2  1  0  0  0  0
  3 22  1  0  0  0  0
  4  3  2  0  0  0  0
  5  6  2  0  0  0  0
  5  4  1  0  0  0  0
  6  7  1  0  0  0  0
  7 24  1  0  0  0  0
  7  2  2  0  0  0  0
  8  9  1  0  0  0  0
  8  6  1  0  0  0  0
  9 26  1  0  0  0  0
 10 11  2  0  0  0  0
 10  9  1  0  0  0  0
 12 11  1  0  0  0  0
 13 14  1  0  0  0  0
 13 12  2  0  0  0  0
 14 10  1  0  0  0  0
 15 13  1  0  0  0  0
 16 17  1  0  0  0  0
 16  5  1  0  0  0  0
 17 30  1  0  0  0  0
 17 31  1  0  0  0  0
 18 16  1  0  0  0  0
 18 34  1  0  0  0  0
 20  1  1  0  0  0  0
 23  4  1  0  0  0  0
 25  9  1  0  0  0  0
 27 15  1  0  0  0  0
 28 16  1  0  0  0  0
 29 17  1  0  0  0  0
 32 18  1  0  0  0  0
 33 18  1  0  0  0  0
M  END
