15313227.xyz
 OpenBabel08132112083D
CCC(n1c(COc2ccc(cc2)C(C)(C)C)nnc1S)C
 47 48  0  0  1  0  0  0  0  0999 V2000
   -4.3879    1.5110    1.1787 C   0  0  0  0  0  0  0  0  0  0  0  0
   -2.8954    1.3386    1.4522 C   0  0  0  0  0  0  0  0  0  0  0  0
   -2.5455    0.0177    2.1563 C   0  0  2  0  0  0  0  0  0  0  0  0
   -1.1294    0.0034    2.5515 N   0  0  0  0  0  0  0  0  0  0  0  0
   -0.6234    0.0085    3.8392 C   0  0  0  0  0  0  0  0  0  0  0  0
   -1.5067    0.0180    5.0504 C   0  0  0  0  0  0  0  0  0  0  0  0
   -0.7032    0.0132    6.1933 O   0  0  0  0  0  0  0  0  0  0  0  0
   -1.3048    0.0240    7.4130 C   0  0  0  0  0  0  0  0  0  0  0  0
   -2.6909    0.0374    7.6200 C   0  0  0  0  0  0  0  0  0  0  0  0
   -3.1943    0.0478    8.9240 C   0  0  0  0  0  0  0  0  0  0  0  0
   -2.3604    0.0453   10.0509 C   0  0  0  0  0  0  0  0  0  0  0  0
   -0.9748    0.0314    9.8134 C   0  0  0  0  0  0  0  0  0  0  0  0
   -0.4511    0.0209    8.5233 C   0  0  0  0  0  0  0  0  0  0  0  0
   -2.9704    0.0580   11.4611 C   0  0  0  0  0  0  0  0  0  0  0  0
   -1.8930    0.0529   12.5565 C   0  0  0  0  0  0  0  0  0  0  0  0
   -3.8311    1.3270   11.6355 C   0  0  0  0  0  0  0  0  0  0  0  0
   -3.8554   -1.1924   11.6479 C   0  0  0  0  0  0  0  0  0  0  0  0
    0.6827    0.0057    3.8199 N   0  0  0  0  0  0  0  0  0  0  0  0
    1.0813    0.0000    2.5054 N   0  0  0  0  0  0  0  0  0  0  0  0
    0.0000    0.0000    1.7638 C   0  0  0  0  0  0  0  0  0  0  0  0
    0.0000    0.0000    0.0000 S   0  0  0  0  0  0  0  0  0  0  0  0
   -2.9091   -1.2436    1.3707 C   0  0  0  0  0  0  0  0  0  0  0  0
   -4.5935    2.5100    0.7655 H   0  0  0  0  0  0  0  0  0  0  0  0
   -4.9817    1.4049    2.1022 H   0  0  0  0  0  0  0  0  0  0  0  0
   -4.7629    0.7727    0.4534 H   0  0  0  0  0  0  0  0  0  0  0  0
   -2.5344    2.1612    2.0915 H   0  0  0  0  0  0  0  0  0  0  0  0
   -2.3274    1.4121    0.5105 H   0  0  0  0  0  0  0  0  0  0  0  0
   -3.1095   -0.0070    3.1010 H   0  0  0  0  0  0  0  0  0  0  0  0
   -2.1779   -0.8654    5.0338 H   0  0  0  0  0  0  0  0  0  0  0  0
   -2.1626    0.9129    5.0306 H   0  0  0  0  0  0  0  0  0  0  0  0
   -3.3893    0.0399    6.7832 H   0  0  0  0  0  0  0  0  0  0  0  0
   -4.2790    0.0582    9.0520 H   0  0  0  0  0  0  0  0  0  0  0  0
   -0.2746    0.0287   10.6484 H   0  0  0  0  0  0  0  0  0  0  0  0
    0.6259    0.0103    8.3469 H   0  0  0  0  0  0  0  0  0  0  0  0
   -1.2415    0.9380   12.4927 H   0  0  0  0  0  0  0  0  0  0  0  0
   -2.3703    0.0622   13.5486 H   0  0  0  0  0  0  0  0  0  0  0  0
   -1.2586   -0.8451   12.5012 H   0  0  0  0  0  0  0  0  0  0  0  0
   -4.2795    1.3550   12.6420 H   0  0  0  0  0  0  0  0  0  0  0  0
   -3.2207    2.2343   11.5058 H   0  0  0  0  0  0  0  0  0  0  0  0
   -4.6510    1.3671   10.9026 H   0  0  0  0  0  0  0  0  0  0  0  0
   -4.3043   -1.2017   12.6546 H   0  0  0  0  0  0  0  0  0  0  0  0
   -3.2627   -2.1126   11.5274 H   0  0  0  0  0  0  0  0  0  0  0  0
   -4.6760   -1.2238   10.9154 H   0  0  0  0  0  0  0  0  0  0  0  0
    1.3523    0.0058   -0.0389 H   0  0  0  0  0  0  0  0  0  0  0  0
   -2.4100   -1.2697    0.3907 H   0  0  0  0  0  0  0  0  0  0  0  0
   -3.9944   -1.2906    1.2033 H   0  0  0  0  0  0  0  0  0  0  0  0
   -2.6088   -2.1424    1.9294 H   0  0  0  0  0  0  0  0  0  0  0  0
  1  2  1  0  0  0  0
  1 24  1  0  0  0  0
  2 26  1  0  0  0  0
  2  3  1  0  0  0  0
  3  4  1  0  0  0  0
  3 28  1  1  0  0  0
  4  5  1  0  0  0  0
  5  6  1  0  0  0  0
  6  7  1  0  0  0  0
  7  8  1  0  0  0  0
  8  9  2  0  0  0  0
  8 13  1  0  0  0  0
  9 10  1  0  0  0  0
 10 32  1  0  0  0  0
 10 11  2  0  0  0  0
 11 14  1  0  0  0  0
 12 11  1  0  0  0  0
 12 33  1  0  0  0  0
 13 12  2  0  0  0  0
 14 16  1  0  0  0  0
 14 17  1  0  0  0  0
 14 15  1  0  0  0  0
 15 36  1  0  0  0  0
 16 38  1  0  0  0  0
 17 41  1  0  0  0  0
 18  5  2  0  0  0  0
 19 18  1  0  0  0  0
 20 19  2  0  0  0  0
 20  4  1  0  0  0  0
 21 20  1  0  0  0  0
 22 47  1  0  0  0  0
 22  3  1  0  0  0  0
 23  1  1  0  0  0  0
 25  1  1  0  0  0  0
 27  2  1  0  0  0  0
 29  6  1  0  0  0  0
 30  6  1  0  0  0  0
 31  9  1  0  0  0  0
 34 13  1  0  0  0  0
 35 15  1  0  0  0  0
 37 15  1  0  0  0  0
 39 16  1  0  0  0  0
 40 16  1  0  0  0  0
 42 17  1  0  0  0  0
 43 17  1  0  0  0  0
 44 21  1  0  0  0  0
 45 22  1  0  0  0  0
 46 22  1  0  0  0  0
M  END
