1557005.xyz
 OpenBabel08132112083D
CCc1cc2cc3OCCOc3cc2nc1S
 30 32  0  0  1  0  0  0  0  0999 V2000
   -2.9657   -1.4544    1.2709 C   0  0  0  0  0  0  0  0  0  0  0  0
   -2.5750   -0.0353    1.7102 C   0  0  0  0  0  0  0  0  0  0  0  0
   -1.2687    0.0123    2.4636 C   0  0  0  0  0  0  0  0  0  0  0  0
   -1.2256    0.0268    3.8412 C   0  0  0  0  0  0  0  0  0  0  0  0
    0.0086    0.0260    4.5415 C   0  0  2  0  0  0  0  0  0  0  0  0
    0.1081    0.0513    5.9532 C   0  0  0  0  0  0  0  0  0  0  0  0
    1.3411    0.0481    6.5733 C   0  0  0  0  0  0  0  0  0  0  0  0
    1.3983    0.0760    7.9370 O   0  0  0  0  0  0  0  0  0  0  0  0
    2.6640    0.4256    8.4744 C   0  0  0  0  0  0  0  0  0  0  0  0
    3.7604   -0.3396    7.7601 C   0  0  0  0  0  0  0  0  0  0  0  0
    3.7636   -0.0119    6.3795 O   0  0  0  0  0  0  0  0  0  0  0  0
    2.5361    0.0073    5.7861 C   0  0  0  0  0  0  0  0  0  0  0  0
    2.4597   -0.0033    4.4077 C   0  0  0  0  0  0  0  0  0  0  0  0
    1.2041    0.0099    3.7532 C   0  0  0  0  0  0  0  0  0  0  0  0
    1.1610   -0.0000    2.3941 N   0  0  0  0  0  0  0  0  0  0  0  0
   -0.0000   -0.0000    1.7877 C   0  0  0  0  0  0  0  0  0  0  0  0
    0.0000    0.0000    0.0000 S   0  0  0  0  0  0  0  0  0  0  0  0
   -3.0866   -2.1134    2.1450 H   0  0  0  0  0  0  0  0  0  0  0  0
   -2.1943   -1.8943    0.6210 H   0  0  0  0  0  0  0  0  0  0  0  0
   -3.9155   -1.4455    0.7132 H   0  0  0  0  0  0  0  0  0  0  0  0
   -2.5151    0.6215    0.8257 H   0  0  0  0  0  0  0  0  0  0  0  0
   -3.3681    0.3825    2.3511 H   0  0  0  0  0  0  0  0  0  0  0  0
   -2.1596    0.0409    4.4112 H   0  0  0  0  0  0  0  0  0  0  0  0
   -0.7886    0.0803    6.5754 H   0  0  0  0  0  0  0  0  0  0  0  0
    2.6366    0.1769    9.5449 H   0  0  0  0  0  0  0  0  0  0  0  0
    2.8346    1.5132    8.3667 H   0  0  0  0  0  0  0  0  0  0  0  0
    3.6048   -1.4269    7.8906 H   0  0  0  0  0  0  0  0  0  0  0  0
    4.7526   -0.0757    8.1531 H   0  0  0  0  0  0  0  0  0  0  0  0
    3.3729   -0.0305    3.8134 H   0  0  0  0  0  0  0  0  0  0  0  0
    1.3491    0.0084   -0.0749 H   0  0  0  0  0  0  0  0  0  0  0  0
  1  2  1  0  0  0  0
  1 18  1  0  0  0  0
  2 22  1  0  0  0  0
  2  3  1  0  0  0  0
  3  4  2  0  0  0  0
  4 23  1  0  0  0  0
  4  5  1  0  0  0  0
  5 14  1  6  0  0  0
  5  6  1  0  0  0  0
  6  7  2  0  0  0  0
  6 24  1  0  0  0  0
  7  8  1  0  0  0  0
  8  9  1  0  0  0  0
  9 25  1  0  0  0  0
 10 27  1  0  0  0  0
 10 28  1  0  0  0  0
 10  9  1  0  0  0  0
 11 10  1  0  0  0  0
 12 11  1  0  0  0  0
 12  7  1  0  0  0  0
 13 12  2  0  0  0  0
 14 13  1  0  0  0  0
 15 14  2  0  0  0  0
 16 15  2  0  0  0  0
 16  3  1  0  0  0  0
 17 16  1  0  0  0  0
 19  1  1  0  0  0  0
 20  1  1  0  0  0  0
 21  2  1  0  0  0  0
 26  9  1  0  0  0  0
 29 13  1  0  0  0  0
 30 17  1  0  0  0  0
M  RAD  1   5   2
M  END
