1679-07-8.xyz
 OpenBabel05112214453D
SC1CCCC1
 16 16  0  0  0  0  0  0  0  0999 V2000
    0.0000    0.0000    0.0000 S   0  0  0  0  0  0  0  0  0  0  0  0
    0.0000   -0.0000    1.8342 C   0  0  0  0  0  0  0  0  0  0  0  0
    1.4352    0.0000    2.3795 C   0  0  0  0  0  0  0  0  0  0  0  0
   -0.6172    1.2327    2.5013 C   0  0  0  0  0  0  0  0  0  0  0  0
    1.2866    0.4487    3.8531 C   0  0  0  0  0  0  0  0  0  0  0  0
   -0.1019    1.1464    3.9496 C   0  0  0  0  0  0  0  0  0  0  0  0
   -0.5211   -0.9091    2.1780 H   0  0  0  0  0  0  0  0  0  0  0  0
    1.9324   -0.9745    2.2657 H   0  0  0  0  0  0  0  0  0  0  0  0
    2.0271    0.7378    1.8116 H   0  0  0  0  0  0  0  0  0  0  0  0
   -1.7155    1.2586    2.4267 H   0  0  0  0  0  0  0  0  0  0  0  0
   -0.2297    2.1338    1.9976 H   0  0  0  0  0  0  0  0  0  0  0  0
    2.1070    1.1210    4.1458 H   0  0  0  0  0  0  0  0  0  0  0  0
    1.3334   -0.4161    4.5326 H   0  0  0  0  0  0  0  0  0  0  0  0
   -0.0474    2.1353    4.4290 H   0  0  0  0  0  0  0  0  0  0  0  0
   -0.7902    0.5381    4.5577 H   0  0  0  0  0  0  0  0  0  0  0  0
   -1.3442   -0.0159   -0.1552 H   0  0  0  0  0  0  0  0  0  0  0  0
  1  2  1  0  0  0  0
  2  7  1  0  0  0  0
  2  3  1  0  0  0  0
  2  4  1  0  0  0  0
  3  5  1  0  0  0  0
  4  6  1  0  0  0  0
  5  6  1  0  0  0  0
  5 12  1  0  0  0  0
  5 13  1  0  0  0  0
  6 14  1  0  0  0  0
  6 15  1  0  0  0  0
  8  3  1  0  0  0  0
  9  3  1  0  0  0  0
 10  4  1  0  0  0  0
 11  4  1  0  0  0  0
 16  1  1  0  0  0  0
M  END
