17075625.xyz
 OpenBabel08132112083D
COCCCn1c(S)nc(=O)c2c1nc(cc2C(F)(F)F)c1ccc(c(c1)Cl)Cl
 43 45  0  0  1  0  0  0  0  0999 V2000
    5.7336    1.9056    2.5936 C   0  0  0  0  0  0  0  0  0  0  0  0
    5.3204    1.0068    1.5920 O   0  0  0  0  0  0  0  0  0  0  0  0
    4.3408    1.5166    0.7161 C   0  0  0  0  0  0  0  0  0  0  0  0
    2.9314    1.4890    1.3073 C   0  0  0  0  0  0  0  0  0  0  0  0
    2.4886    0.0593    1.6136 C   0  0  0  0  0  0  0  0  0  0  0  0
    1.2377    0.0000    2.3812 N   0  0  0  0  0  0  0  0  0  0  0  0
   -0.0000   -0.0000    1.7830 C   0  0  0  0  0  0  0  0  0  0  0  0
    0.0000    0.0000    0.0000 S   0  0  0  0  0  0  0  0  0  0  0  0
   -1.1312   -0.0006    2.3964 N   0  0  0  0  0  0  0  0  0  0  0  0
   -1.2190    0.0071    3.7874 C   0  0  0  0  0  0  0  0  0  0  0  0
   -2.2928   -0.0139    4.3498 O   0  0  0  0  0  0  0  0  0  0  0  0
    0.0850    0.0472    4.5204 C   0  0  2  0  0  0  0  0  0  0  0  0
    1.2908    0.0432    3.7764 C   0  0  0  0  0  0  0  0  0  0  0  0
    2.5048    0.0804    4.3182 N   0  0  0  0  0  0  0  0  0  0  0  0
    2.6344    0.1147    5.6446 C   0  0  0  0  0  0  0  0  0  0  0  0
    1.5026    0.1176    6.4814 C   0  0  0  0  0  0  0  0  0  0  0  0
    0.2286    0.0866    5.9255 C   0  0  0  0  0  0  0  0  0  0  0  0
   -0.9557    0.0910    6.8927 C   0  0  0  0  0  0  0  0  0  0  0  0
   -1.7312    1.1618    6.7251 F   0  0  0  0  0  0  0  0  0  0  0  0
   -0.5088    0.1406    8.1709 F   0  0  0  0  0  0  0  0  0  0  0  0
   -1.6866   -1.0183    6.7934 F   0  0  0  0  0  0  0  0  0  0  0  0
    4.0145    0.1325    6.1888 C   0  0  0  0  0  0  0  0  0  0  0  0
    4.2846    0.4505    7.5310 C   0  0  0  0  0  0  0  0  0  0  0  0
    5.5901    0.4537    8.0120 C   0  0  0  0  0  0  0  0  0  0  0  0
    6.6576    0.1350    7.1664 C   0  0  0  0  0  0  0  0  0  0  0  0
    6.3986   -0.1841    5.8219 C   0  0  0  0  0  0  0  0  0  0  0  0
    5.0903   -0.1790    5.3423 C   0  0  0  0  0  0  0  0  0  0  0  0
    7.6994   -0.5848    4.7386 Cl  0  0  0  0  0  0  0  0  0  0  0  0
    8.2743    0.1432    7.7919 Cl  0  0  0  0  0  0  0  0  0  0  0  0
    4.9312    2.1315    3.3211 H   0  0  0  0  0  0  0  0  0  0  0  0
    6.5657    1.4351    3.1335 H   0  0  0  0  0  0  0  0  0  0  0  0
    6.0861    2.8616    2.1578 H   0  0  0  0  0  0  0  0  0  0  0  0
    4.3775    0.8860   -0.1883 H   0  0  0  0  0  0  0  0  0  0  0  0
    4.5949    2.5498    0.4063 H   0  0  0  0  0  0  0  0  0  0  0  0
    2.2294    1.9643    0.6030 H   0  0  0  0  0  0  0  0  0  0  0  0
    2.9026    2.0784    2.2374 H   0  0  0  0  0  0  0  0  0  0  0  0
    2.3486   -0.5223    0.6909 H   0  0  0  0  0  0  0  0  0  0  0  0
    3.2610   -0.4402    2.2055 H   0  0  0  0  0  0  0  0  0  0  0  0
   -1.3506   -0.0093   -0.0335 H   0  0  0  0  0  0  0  0  0  0  0  0
    1.6112    0.1282    7.5616 H   0  0  0  0  0  0  0  0  0  0  0  0
    3.4777    0.7172    8.2136 H   0  0  0  0  0  0  0  0  0  0  0  0
    5.8003    0.7073    9.0517 H   0  0  0  0  0  0  0  0  0  0  0  0
    4.9003   -0.4239    4.2987 H   0  0  0  0  0  0  0  0  0  0  0  0
  1 31  1  0  0  0  0
  1 30  1  0  0  0  0
  2  1  1  0  0  0  0
  3  4  1  0  0  0  0
  3  2  1  0  0  0  0
  4  5  1  0  0  0  0
  4 36  1  0  0  0  0
  5 38  1  0  0  0  0
  5  6  1  0  0  0  0
  6 13  1  0  0  0  0
  7  6  1  0  0  0  0
  7  9  2  0  0  0  0
  8  7  1  0  0  0  0
  9 10  2  0  0  0  0
 10 11  2  0  0  0  0
 10 12  1  0  0  0  0
 12 13  1  1  0  0  0
 12 17  1  0  0  0  0
 13 14  2  0  0  0  0
 14 15  2  0  0  0  0
 15 22  1  0  0  0  0
 15 16  1  0  0  0  0
 16 40  1  0  0  0  0
 17 16  2  0  0  0  0
 17 18  1  0  0  0  0
 18 20  1  0  0  0  0
 19 18  1  0  0  0  0
 21 18  1  0  0  0  0
 22 23  2  0  0  0  0
 23 24  1  0  0  0  0
 23 41  1  0  0  0  0
 24 42  1  0  0  0  0
 25 29  1  0  0  0  0
 25 24  2  0  0  0  0
 26 25  1  0  0  0  0
 27 26  2  0  0  0  0
 27 22  1  0  0  0  0
 28 26  1  0  0  0  0
 32  1  1  0  0  0  0
 33  3  1  0  0  0  0
 34  3  1  0  0  0  0
 35  4  1  0  0  0  0
 37  5  1  0  0  0  0
 39  8  1  0  0  0  0
 43 27  1  0  0  0  0
M  RAD  1  12   2
M  END
