17082704.xyz
 OpenBabel08132112083D
FC(Oc1ccc(cc1)c1cc(C(=O)O)c2c(n1)n(c1cccc(c1)C)c(nc2=O)S)F
 47 50  0  0  1  0  0  0  0  0999 V2000
    8.3113    0.6060    9.4068 F   0  0  0  0  0  0  0  0  0  0  0  0
    8.5123   -0.3742    8.4918 C   0  0  0  0  0  0  0  0  0  0  0  0
    8.1259    0.0397    7.2448 O   0  0  0  0  0  0  0  0  0  0  0  0
    6.7932    0.0380    6.9151 C   0  0  0  0  0  0  0  0  0  0  0  0
    6.4972   -0.0190    5.5471 C   0  0  0  0  0  0  0  0  0  0  0  0
    5.1749   -0.0178    5.1263 C   0  0  0  0  0  0  0  0  0  0  0  0
    4.1177    0.0327    6.0573 C   0  0  0  0  0  0  0  0  0  0  0  0
    4.4367    0.0967    7.4230 C   0  0  0  0  0  0  0  0  0  0  0  0
    5.7615    0.1089    7.8591 C   0  0  0  0  0  0  0  0  0  0  0  0
    2.7200    0.0247    5.5722 C   0  0  0  0  0  0  0  0  0  0  0  0
    1.6113    0.0253    6.4371 C   0  0  0  0  0  0  0  0  0  0  0  0
    0.3072    0.0183    5.9505 C   0  0  0  0  0  0  0  0  0  0  0  0
   -0.7410    0.0186    7.0941 C   0  0  0  0  0  0  0  0  0  0  0  0
   -0.3346    0.0237    8.2354 O   0  0  0  0  0  0  0  0  0  0  0  0
   -2.0142    0.0132    6.8043 O   0  0  0  0  0  0  0  0  0  0  0  0
    0.1192    0.0104    4.5336 C   0  0  1  0  0  0  0  0  0  0  0  0
    1.3127    0.0080    3.7617 C   0  0  0  0  0  0  0  0  0  0  0  0
    2.5419    0.0142    4.2492 N   0  0  0  0  0  0  0  0  0  0  0  0
    1.2322    0.0000    2.3611 N   0  0  0  0  0  0  0  0  0  0  0  0
    2.4456   -0.0014    1.5807 C   0  0  0  0  0  0  0  0  0  0  0  0
    3.0095   -1.2153    1.1896 C   0  0  0  0  0  0  0  0  0  0  0  0
    4.1794   -1.1965    0.4286 C   0  0  0  0  0  0  0  0  0  0  0  0
    4.7687    0.0188    0.0747 C   0  0  0  0  0  0  0  0  0  0  0  0
    4.2069    1.2439    0.4701 C   0  0  0  0  0  0  0  0  0  0  0  0
    3.0307    1.2155    1.2293 C   0  0  0  0  0  0  0  0  0  0  0  0
    4.8661    2.5512    0.1132 C   0  0  0  0  0  0  0  0  0  0  0  0
   -0.0000   -0.0000    1.7709 C   0  0  0  0  0  0  0  0  0  0  0  0
   -1.1209    0.0015    2.4161 N   0  0  0  0  0  0  0  0  0  0  0  0
   -1.1673    0.0041    3.7900 C   0  0  0  0  0  0  0  0  0  0  0  0
   -2.2733    0.0021    4.3406 O   0  0  0  0  0  0  0  0  0  0  0  0
    0.0000    0.0000    0.0000 S   0  0  0  0  0  0  0  0  0  0  0  0
    9.8242   -0.6162    8.4335 F   0  0  0  0  0  0  0  0  0  0  0  0
    7.9690   -1.2776    8.8243 H   0  0  0  0  0  0  0  0  0  0  0  0
    7.3224   -0.0686    4.8349 H   0  0  0  0  0  0  0  0  0  0  0  0
    4.9313   -0.0639    4.0646 H   0  0  0  0  0  0  0  0  0  0  0  0
    3.6478    0.1546    8.1733 H   0  0  0  0  0  0  0  0  0  0  0  0
    5.9810    0.2053    8.9218 H   0  0  0  0  0  0  0  0  0  0  0  0
    1.7205    0.0285    7.5191 H   0  0  0  0  0  0  0  0  0  0  0  0
   -2.1930    0.0084    5.8026 H   0  0  0  0  0  0  0  0  0  0  0  0
    2.5345   -2.1538    1.4791 H   0  0  0  0  0  0  0  0  0  0  0  0
    4.6333   -2.1367    0.1084 H   0  0  0  0  0  0  0  0  0  0  0  0
    5.6834    0.0198   -0.5239 H   0  0  0  0  0  0  0  0  0  0  0  0
    2.5610    2.1451    1.5572 H   0  0  0  0  0  0  0  0  0  0  0  0
    4.1471    3.3833    0.1258 H   0  0  0  0  0  0  0  0  0  0  0  0
    5.3273    2.5091   -0.8849 H   0  0  0  0  0  0  0  0  0  0  0  0
    5.6662    2.7954    0.8330 H   0  0  0  0  0  0  0  0  0  0  0  0
   -1.3526    0.0038   -0.0341 H   0  0  0  0  0  0  0  0  0  0  0  0
  2 33  1  0  0  0  0
  2  1  1  0  0  0  0
  3  2  1  0  0  0  0
  4  3  1  0  0  0  0
  4  9  2  0  0  0  0
  5  4  1  0  0  0  0
  6  5  2  0  0  0  0
  6  7  1  0  0  0  0
  7  8  2  0  0  0  0
  8  9  1  0  0  0  0
  8 36  1  0  0  0  0
  9 37  1  0  0  0  0
 10  7  1  0  0  0  0
 10 11  1  0  0  0  0
 11 38  1  0  0  0  0
 12 11  2  0  0  0  0
 12 13  1  0  0  0  0
 13 14  2  0  0  0  0
 15 13  1  0  0  0  0
 16 17  1  1  0  0  0
 16 12  1  0  0  0  0
 17 18  2  0  0  0  0
 18 10  2  0  0  0  0
 19 17  1  0  0  0  0
 20 19  1  0  0  0  0
 21 40  1  0  0  0  0
 21 20  2  0  0  0  0
 22 21  1  0  0  0  0
 23 22  2  0  0  0  0
 23 24  1  0  0  0  0
 24 25  2  0  0  0  0
 25 43  1  0  0  0  0
 25 20  1  0  0  0  0
 26 44  1  0  0  0  0
 26 24  1  0  0  0  0
 26 46  1  0  0  0  0
 27 19  1  0  0  0  0
 27 28  2  0  0  0  0
 28 29  2  0  0  0  0
 29 30  2  0  0  0  0
 29 16  1  0  0  0  0
 31 27  1  0  0  0  0
 32  2  1  0  0  0  0
 34  5  1  0  0  0  0
 35  6  1  0  0  0  0
 39 15  1  0  0  0  0
 41 22  1  0  0  0  0
 42 23  1  0  0  0  0
 45 26  1  0  0  0  0
 47 31  1  0  0  0  0
M  RAD  1  16   2
M  END
