179388894.xyz
 OpenBabel08132112083D
O=C(CC(c1ccccc1)c1ccccc1)Nc1ccc(nc1)S
 42 44  0  0  1  0  0  0  0  0999 V2000
    2.1465    0.6775    6.4061 O   0  0  0  0  0  0  0  0  0  0  0  0
    1.0150    0.4211    6.7739 C   0  0  0  0  0  0  0  0  0  0  0  0
    0.5701    0.6226    8.2152 C   0  0  0  0  0  0  0  0  0  0  0  0
    0.1251    2.0886    8.4376 C   0  0  0  0  0  0  0  0  0  0  0  0
   -1.0174    2.4278    7.4889 C   0  0  0  0  0  0  0  0  0  0  0  0
   -0.7653    3.0874    6.2789 C   0  0  0  0  0  0  0  0  0  0  0  0
   -1.7871    3.2888    5.3474 C   0  0  0  0  0  0  0  0  0  0  0  0
   -3.0803    2.8337    5.6164 C   0  0  0  0  0  0  0  0  0  0  0  0
   -3.3455    2.1820    6.8256 C   0  0  0  0  0  0  0  0  0  0  0  0
   -2.3215    1.9835    7.7553 C   0  0  0  0  0  0  0  0  0  0  0  0
   -0.2194    2.4180    9.8832 C   0  0  0  0  0  0  0  0  0  0  0  0
   -0.3065    1.4544   10.8950 C   0  0  0  0  0  0  0  0  0  0  0  0
   -0.6449    1.8185   12.2041 C   0  0  0  0  0  0  0  0  0  0  0  0
   -0.8987    3.1526   12.5206 C   0  0  0  0  0  0  0  0  0  0  0  0
   -0.8125    4.1252   11.5178 C   0  0  0  0  0  0  0  0  0  0  0  0
   -0.4784    3.7586   10.2156 C   0  0  0  0  0  0  0  0  0  0  0  0
    0.0124   -0.0068    5.9319 N   0  0  0  0  0  0  0  0  0  0  0  0
    0.0218   -0.0053    4.5282 C   0  0  1  0  0  0  0  0  0  0  0  0
   -1.2085    0.0034    3.8491 C   0  0  0  0  0  0  0  0  0  0  0  0
   -1.2303    0.0011    2.4626 C   0  0  0  0  0  0  0  0  0  0  0  0
   -0.0000    0.0000    1.7804 C   0  0  0  0  0  0  0  0  0  0  0  0
    1.1669   -0.0000    2.4161 N   0  0  0  0  0  0  0  0  0  0  0  0
    1.1933   -0.0035    3.7513 C   0  0  0  0  0  0  0  0  0  0  0  0
    0.0000    0.0000    0.0000 S   0  0  0  0  0  0  0  0  0  0  0  0
    1.4314    0.3940    8.8576 H   0  0  0  0  0  0  0  0  0  0  0  0
   -0.2509   -0.0643    8.4747 H   0  0  0  0  0  0  0  0  0  0  0  0
    0.9855    2.7160    8.1530 H   0  0  0  0  0  0  0  0  0  0  0  0
    0.2509    3.4198    6.0518 H   0  0  0  0  0  0  0  0  0  0  0  0
   -1.5686    3.7949    4.4043 H   0  0  0  0  0  0  0  0  0  0  0  0
   -3.8801    2.9890    4.8886 H   0  0  0  0  0  0  0  0  0  0  0  0
   -4.3567    1.8327    7.0488 H   0  0  0  0  0  0  0  0  0  0  0  0
   -2.5352    1.4840    8.7039 H   0  0  0  0  0  0  0  0  0  0  0  0
   -0.1092    0.4042   10.6761 H   0  0  0  0  0  0  0  0  0  0  0  0
   -0.7072    1.0499   12.9784 H   0  0  0  0  0  0  0  0  0  0  0  0
   -1.1613    3.4366   13.5423 H   0  0  0  0  0  0  0  0  0  0  0  0
   -1.0073    5.1743   11.7537 H   0  0  0  0  0  0  0  0  0  0  0  0
   -0.4217    4.5209    9.4340 H   0  0  0  0  0  0  0  0  0  0  0  0
   -0.9108   -0.0630    6.3470 H   0  0  0  0  0  0  0  0  0  0  0  0
   -2.1434    0.0292    4.4155 H   0  0  0  0  0  0  0  0  0  0  0  0
   -2.1758    0.0091    1.9172 H   0  0  0  0  0  0  0  0  0  0  0  0
    2.1687    0.0090    4.2369 H   0  0  0  0  0  0  0  0  0  0  0  0
    1.3482    0.0059   -0.0898 H   0  0  0  0  0  0  0  0  0  0  0  0
  1  2  2  0  0  0  0
  2  3  1  0  0  0  0
  3  4  1  0  0  0  0
  3 26  1  0  0  0  0
  3 25  1  0  0  0  0
  4 11  1  0  0  0  0
  5 10  1  0  0  0  0
  5  4  1  0  0  0  0
  6  5  2  0  0  0  0
  7  8  2  0  0  0  0
  7  6  1  0  0  0  0
  8  9  1  0  0  0  0
  9 31  1  0  0  0  0
  9 10  2  0  0  0  0
 10 32  1  0  0  0  0
 11 16  2  0  0  0  0
 11 12  1  0  0  0  0
 12 13  2  0  0  0  0
 13 14  1  0  0  0  0
 13 34  1  0  0  0  0
 14 35  1  0  0  0  0
 15 36  1  0  0  0  0
 15 14  2  0  0  0  0
 16 15  1  0  0  0  0
 17 38  1  0  0  0  0
 17  2  1  0  0  0  0
 18 17  1  1  0  0  0
 19 39  1  0  0  0  0
 19 18  1  0  0  0  0
 20 19  2  0  0  0  0
 21 22  2  0  0  0  0
 21 20  1  0  0  0  0
 22 23  2  0  0  0  0
 23 41  1  0  0  0  0
 23 18  1  0  0  0  0
 24 21  1  0  0  0  0
 27  4  1  0  0  0  0
 28  6  1  0  0  0  0
 29  7  1  0  0  0  0
 30  8  1  0  0  0  0
 33 12  1  0  0  0  0
 37 16  1  0  0  0  0
 40 20  1  0  0  0  0
 42 24  1  0  0  0  0
M  RAD  1  18   2
M  END
