180096362.xyz
 OpenBabel08132112083D
SCCCCc1ccc(c(c1)Cl)OCC
 32 32  0  0  0  0  0  0  0  0999 V2000
    0.0000    0.0000    0.0000 S   0  0  0  0  0  0  0  0  0  0  0  0
    0.0000    0.0000    1.8353 C   0  0  0  0  0  0  0  0  0  0  0  0
    1.3896   -0.0000    2.4637 C   0  0  0  0  0  0  0  0  0  0  0  0
    1.3474    0.0595    3.9915 C   0  0  0  0  0  0  0  0  0  0  0  0
    2.7399    0.0406    4.6472 C   0  0  0  0  0  0  0  0  0  0  0  0
    3.5156   -1.2271    4.3752 C   0  0  0  0  0  0  0  0  0  0  0  0
    4.5462   -1.2742    3.4325 C   0  0  0  0  0  0  0  0  0  0  0  0
    5.2276   -2.4631    3.1509 C   0  0  0  0  0  0  0  0  0  0  0  0
    4.8916   -3.6525    3.8111 C   0  0  0  0  0  0  0  0  0  0  0  0
    3.8505   -3.6064    4.7646 C   0  0  0  0  0  0  0  0  0  0  0  0
    3.1804   -2.4191    5.0378 C   0  0  0  0  0  0  0  0  0  0  0  0
    3.4117   -5.0679    5.6096 Cl  0  0  0  0  0  0  0  0  0  0  0  0
    5.4902   -4.8440    3.6074 O   0  0  0  0  0  0  0  0  0  0  0  0
    6.5442   -4.9454    2.6634 C   0  0  0  0  0  0  0  0  0  0  0  0
    7.0167   -6.3847    2.6504 C   0  0  0  0  0  0  0  0  0  0  0  0
    0.5995   -1.2042   -0.1508 H   0  0  0  0  0  0  0  0  0  0  0  0
   -0.5517    0.9146    2.1065 H   0  0  0  0  0  0  0  0  0  0  0  0
   -0.5985   -0.8505    2.1984 H   0  0  0  0  0  0  0  0  0  0  0  0
    1.9315   -0.9067    2.1452 H   0  0  0  0  0  0  0  0  0  0  0  0
    1.9651    0.8544    2.0677 H   0  0  0  0  0  0  0  0  0  0  0  0
    0.7562   -0.7907    4.3762 H   0  0  0  0  0  0  0  0  0  0  0  0
    0.8153    0.9731    4.3105 H   0  0  0  0  0  0  0  0  0  0  0  0
    2.6205    0.1725    5.7355 H   0  0  0  0  0  0  0  0  0  0  0  0
    3.3201    0.9067    4.2884 H   0  0  0  0  0  0  0  0  0  0  0  0
    4.8299   -0.3632    2.8995 H   0  0  0  0  0  0  0  0  0  0  0  0
    6.0266   -2.4556    2.4103 H   0  0  0  0  0  0  0  0  0  0  0  0
    2.3842   -2.4324    5.7851 H   0  0  0  0  0  0  0  0  0  0  0  0
    7.3671   -4.2614    2.9436 H   0  0  0  0  0  0  0  0  0  0  0  0
    6.1844   -4.6383    1.6634 H   0  0  0  0  0  0  0  0  0  0  0  0
    6.1940   -7.0583    2.3674 H   0  0  0  0  0  0  0  0  0  0  0  0
    7.8381   -6.5099    1.9283 H   0  0  0  0  0  0  0  0  0  0  0  0
    7.3763   -6.6816    3.6470 H   0  0  0  0  0  0  0  0  0  0  0  0
  1  2  1  0  0  0  0
  2 17  1  0  0  0  0
  2 18  1  0  0  0  0
  2  3  1  0  0  0  0
  3  4  1  0  0  0  0
  4 22  1  0  0  0  0
  4 21  1  0  0  0  0
  4  5  1  0  0  0  0
  5 23  1  0  0  0  0
  6  5  1  0  0  0  0
  6 11  2  0  0  0  0
  7  6  1  0  0  0  0
  8  7  2  0  0  0  0
  8  9  1  0  0  0  0
  9 10  2  0  0  0  0
 10 11  1  0  0  0  0
 10 12  1  0  0  0  0
 11 27  1  0  0  0  0
 13  9  1  0  0  0  0
 14 28  1  0  0  0  0
 14 13  1  0  0  0  0
 15 14  1  0  0  0  0
 15 32  1  0  0  0  0
 16  1  1  0  0  0  0
 19  3  1  0  0  0  0
 20  3  1  0  0  0  0
 24  5  1  0  0  0  0
 25  7  1  0  0  0  0
 26  8  1  0  0  0  0
 29 14  1  0  0  0  0
 30 15  1  0  0  0  0
 31 15  1  0  0  0  0
M  END
