181596982.xyz
 OpenBabel08132112083D
CC(COc1cccc(c1)/C=N\n1c(C)nnc1S)C
 38 39  0  0  0  0  0  0  0  0999 V2000
    8.1332   -5.2513    5.4103 C   0  0  0  0  0  0  0  0  0  0  0  0
    7.7876   -3.8926    6.0243 C   0  0  0  0  0  0  0  0  0  0  0  0
    6.7458   -3.1544    5.1910 C   0  0  0  0  0  0  0  0  0  0  0  0
    5.5634   -3.9369    5.1372 O   0  0  0  0  0  0  0  0  0  0  0  0
    4.4980   -3.4964    4.4336 C   0  0  0  0  0  0  0  0  0  0  0  0
    3.3676   -4.3330    4.4238 C   0  0  0  0  0  0  0  0  0  0  0  0
    2.2282   -3.9624    3.7156 C   0  0  0  0  0  0  0  0  0  0  0  0
    2.1737   -2.7494    3.0251 C   0  0  0  0  0  0  0  0  0  0  0  0
    3.2927   -1.9013    3.0407 C   0  0  0  0  0  0  0  0  0  0  0  0
    4.4615   -2.2882    3.7266 C   0  0  0  0  0  0  0  0  0  0  0  0
    3.3400   -0.6216    2.3124 C   0  0  0  0  0  0  0  0  0  0  0  0
    2.4191    0.2229    2.0127 N   0  0  0  0  0  0  0  0  0  0  0  0
    1.1491    0.0000    2.5202 N   0  0  0  0  0  0  0  0  0  0  0  0
    0.7062   -0.0424    3.8350 C   0  0  0  0  0  0  0  0  0  0  0  0
    1.5822    0.0460    5.0334 C   0  0  0  0  0  0  0  0  0  0  0  0
   -0.6026   -0.1080    3.8335 N   0  0  0  0  0  0  0  0  0  0  0  0
   -1.0496   -0.0979    2.5334 N   0  0  0  0  0  0  0  0  0  0  0  0
    0.0000   -0.0000    1.7574 C   0  0  0  0  0  0  0  0  0  0  0  0
    0.0000    0.0000    0.0000 S   0  0  0  0  0  0  0  0  0  0  0  0
    9.0283   -3.0129    6.1996 C   0  0  0  0  0  0  0  0  0  0  0  0
    7.2323   -5.8686    5.2848 H   0  0  0  0  0  0  0  0  0  0  0  0
    8.8436   -5.8012    6.0470 H   0  0  0  0  0  0  0  0  0  0  0  0
    8.6003   -5.1244    4.4184 H   0  0  0  0  0  0  0  0  0  0  0  0
    7.3344   -4.0638    7.0172 H   0  0  0  0  0  0  0  0  0  0  0  0
    7.1311   -2.9811    4.1673 H   0  0  0  0  0  0  0  0  0  0  0  0
    6.5212   -2.1678    5.6375 H   0  0  0  0  0  0  0  0  0  0  0  0
    3.4165   -5.2737    4.9750 H   0  0  0  0  0  0  0  0  0  0  0  0
    1.3623   -4.6278    3.7030 H   0  0  0  0  0  0  0  0  0  0  0  0
    1.2754   -2.4791    2.4731 H   0  0  0  0  0  0  0  0  0  0  0  0
    5.3272   -1.6267    3.7073 H   0  0  0  0  0  0  0  0  0  0  0  0
    4.3305   -0.3265    1.9388 H   0  0  0  0  0  0  0  0  0  0  0  0
    2.3534    0.8219    4.9075 H   0  0  0  0  0  0  0  0  0  0  0  0
    2.0935   -0.9063    5.2429 H   0  0  0  0  0  0  0  0  0  0  0  0
    0.9523    0.3022    5.8950 H   0  0  0  0  0  0  0  0  0  0  0  0
    1.2355    0.5497   -0.0868 H   0  0  0  0  0  0  0  0  0  0  0  0
    9.5025   -2.7979    5.2268 H   0  0  0  0  0  0  0  0  0  0  0  0
    8.7840   -2.0499    6.6764 H   0  0  0  0  0  0  0  0  0  0  0  0
    9.7785   -3.5171    6.8277 H   0  0  0  0  0  0  0  0  0  0  0  0
  1  2  1  0  0  0  0
  1 22  1  0  0  0  0
  2 20  1  0  0  0  0
  2 24  1  0  0  0  0
  3 26  1  0  0  0  0
  3  2  1  0  0  0  0
  4  3  1  0  0  0  0
  5  4  1  0  0  0  0
  6  5  1  0  0  0  0
  6 27  1  0  0  0  0
  7  6  2  0  0  0  0
  8  9  2  0  0  0  0
  8  7  1  0  0  0  0
  9 10  1  0  0  0  0
 10  5  2  0  0  0  0
 11  9  1  0  0  0  0
 12 11  2  0  0  0  0
 12 13  1  0  0  0  0
 13 14  1  0  0  0  0
 14 15  1  0  0  0  0
 15 33  1  0  0  0  0
 15 34  1  0  0  0  0
 16 14  2  0  0  0  0
 17 16  1  0  0  0  0
 18 13  1  0  0  0  0
 18 17  2  0  0  0  0
 19 18  1  0  0  0  0
 20 37  1  0  0  0  0
 20 38  1  0  0  0  0
 21  1  1  0  0  0  0
 23  1  1  0  0  0  0
 25  3  1  0  0  0  0
 28  7  1  0  0  0  0
 29  8  1  0  0  0  0
 30 10  1  0  0  0  0
 31 11  1  0  0  0  0
 32 15  1  0  0  0  0
 35 19  1  0  0  0  0
 36 20  1  0  0  0  0
M  END
