181599423.xyz
 OpenBabel08132112083D
CCC(c1nnc(n1/N=C\c1ccc(c(c1)Cl)Cl)S)CC
 37 38  0  0  0  0  0  0  0  0999 V2000
   -1.5460   -2.8483    4.5620 C   0  0  0  0  0  0  0  0  0  0  0  0
   -2.3571   -1.6411    5.0351 C   0  0  0  0  0  0  0  0  0  0  0  0
   -1.6054   -0.2786    5.0254 C   0  0  0  0  0  0  0  0  0  0  0  0
   -0.6899   -0.1544    3.8435 C   0  0  0  0  0  0  0  0  0  0  0  0
    0.6193   -0.0856    3.8382 N   0  0  0  0  0  0  0  0  0  0  0  0
    1.0535    0.0000    2.5367 N   0  0  0  0  0  0  0  0  0  0  0  0
   -0.0000    0.0000    1.7600 C   0  0  0  0  0  0  0  0  0  0  0  0
   -1.1460   -0.0747    2.5378 N   0  0  0  0  0  0  0  0  0  0  0  0
   -2.4620   -0.2676    2.1639 N   0  0  0  0  0  0  0  0  0  0  0  0
   -2.9850    0.5531    1.3267 C   0  0  0  0  0  0  0  0  0  0  0  0
   -2.4769    1.8066    0.7402 C   0  0  0  0  0  0  0  0  0  0  0  0
   -1.5758    2.6669    1.3969 C   0  0  0  0  0  0  0  0  0  0  0  0
   -1.1697    3.8486    0.7900 C   0  0  0  0  0  0  0  0  0  0  0  0
   -1.6381    4.1957   -0.4831 C   0  0  0  0  0  0  0  0  0  0  0  0
   -2.5477    3.3507   -1.1422 C   0  0  0  0  0  0  0  0  0  0  0  0
   -2.9699    2.1759   -0.5208 C   0  0  0  0  0  0  0  0  0  0  0  0
   -3.1630    3.7496   -2.7153 Cl  0  0  0  0  0  0  0  0  0  0  0  0
   -1.0930    5.6653   -1.2183 Cl  0  0  0  0  0  0  0  0  0  0  0  0
    0.0000    0.0000    0.0000 S   0  0  0  0  0  0  0  0  0  0  0  0
   -0.8851    0.0550    6.3490 C   0  0  0  0  0  0  0  0  0  0  0  0
    0.1194   -0.9721    6.8721 C   0  0  0  0  0  0  0  0  0  0  0  0
   -0.6068   -2.9689    5.1192 H   0  0  0  0  0  0  0  0  0  0  0  0
   -2.1312   -3.7742    4.6784 H   0  0  0  0  0  0  0  0  0  0  0  0
   -1.2872   -2.7571    3.4956 H   0  0  0  0  0  0  0  0  0  0  0  0
   -2.7271   -1.8081    6.0610 H   0  0  0  0  0  0  0  0  0  0  0  0
   -3.2463   -1.5520    4.3935 H   0  0  0  0  0  0  0  0  0  0  0  0
   -2.3780    0.4995    4.8947 H   0  0  0  0  0  0  0  0  0  0  0  0
   -3.9989    0.2659    1.0176 H   0  0  0  0  0  0  0  0  0  0  0  0
   -1.1926    2.4223    2.3863 H   0  0  0  0  0  0  0  0  0  0  0  0
   -0.4734    4.5194    1.2943 H   0  0  0  0  0  0  0  0  0  0  0  0
   -3.6826    1.5354   -1.0429 H   0  0  0  0  0  0  0  0  0  0  0  0
    1.2277   -0.5654   -0.0584 H   0  0  0  0  0  0  0  0  0  0  0  0
   -0.3748    1.0238    6.2237 H   0  0  0  0  0  0  0  0  0  0  0  0
   -1.6703    0.2127    7.1085 H   0  0  0  0  0  0  0  0  0  0  0  0
    0.9151   -1.1503    6.1361 H   0  0  0  0  0  0  0  0  0  0  0  0
    0.5872   -0.6034    7.7989 H   0  0  0  0  0  0  0  0  0  0  0  0
   -0.3631   -1.9322    7.1122 H   0  0  0  0  0  0  0  0  0  0  0  0
  1 23  1  0  0  0  0
  1  2  1  0  0  0  0
  1 22  1  0  0  0  0
  2 25  1  0  0  0  0
  3  2  1  0  0  0  0
  3 20  1  0  0  0  0
  4  3  1  0  0  0  0
  5  4  2  0  0  0  0
  6  5  1  0  0  0  0
  7  6  2  0  0  0  0
  7  8  1  0  0  0  0
  8  4  1  0  0  0  0
  9  8  1  0  0  0  0
 10  9  2  0  0  0  0
 11 10  1  0  0  0  0
 11 12  2  0  0  0  0
 12 29  1  0  0  0  0
 13 30  1  0  0  0  0
 13 12  1  0  0  0  0
 14 13  2  0  0  0  0
 15 16  2  0  0  0  0
 15 14  1  0  0  0  0
 16 11  1  0  0  0  0
 17 15  1  0  0  0  0
 18 14  1  0  0  0  0
 19  7  1  0  0  0  0
 20 21  1  0  0  0  0
 20 34  1  0  0  0  0
 21 37  1  0  0  0  0
 21 36  1  0  0  0  0
 24  1  1  0  0  0  0
 26  2  1  0  0  0  0
 27  3  1  0  0  0  0
 28 10  1  0  0  0  0
 31 16  1  0  0  0  0
 32 19  1  0  0  0  0
 33 20  1  0  0  0  0
 35 21  1  0  0  0  0
M  END
