181552385.xyz
 OpenBabel08132112083D
Clc1ccc(c(c1)Cl)/C=N\n1c(S)nnc(c1=O)C
 27 28  0  0  0  0  0  0  0  0999 V2000
    3.6722   -5.6095    5.0006 Cl  0  0  0  0  0  0  0  0  0  0  0  0
    3.5765   -4.1555    4.0489 C   0  0  0  0  0  0  0  0  0  0  0  0
    2.4601   -3.9341    3.2352 C   0  0  0  0  0  0  0  0  0  0  0  0
    2.3917   -2.7635    2.4863 C   0  0  0  0  0  0  0  0  0  0  0  0
    3.4191   -1.8062    2.5329 C   0  0  0  0  0  0  0  0  0  0  0  0
    4.5362   -2.0686    3.3441 C   0  0  0  0  0  0  0  0  0  0  0  0
    4.6223   -3.2318    4.1078 C   0  0  0  0  0  0  0  0  0  0  0  0
    5.8291   -0.9069    3.4308 Cl  0  0  0  0  0  0  0  0  0  0  0  0
    3.3459   -0.5845    1.7142 C   0  0  0  0  0  0  0  0  0  0  0  0
    2.3481    0.2016    1.5382 N   0  0  0  0  0  0  0  0  0  0  0  0
    1.2372   -0.0000    2.3587 N   0  0  0  0  0  0  0  0  0  0  0  0
   -0.0000   -0.0000    1.7646 C   0  0  0  0  0  0  0  0  0  0  0  0
    0.0000    0.0000    0.0000 S   0  0  0  0  0  0  0  0  0  0  0  0
   -1.1199   -0.0449    2.4270 N   0  0  0  0  0  0  0  0  0  0  0  0
   -1.0882   -0.0492    3.7847 N   0  0  0  0  0  0  0  0  0  0  0  0
    0.0418    0.0063    4.4305 C   0  0  0  0  0  0  0  0  0  0  0  0
    1.3541    0.0620    3.7702 C   0  0  0  0  0  0  0  0  0  0  0  0
    2.4307    0.1370    4.3274 O   0  0  0  0  0  0  0  0  0  0  0  0
    0.0427    0.0094    5.9260 C   0  0  0  0  0  0  0  0  0  0  0  0
    1.6628   -4.6761    3.1902 H   0  0  0  0  0  0  0  0  0  0  0  0
    1.5329   -2.5939    1.8346 H   0  0  0  0  0  0  0  0  0  0  0  0
    5.4885   -3.4105    4.7437 H   0  0  0  0  0  0  0  0  0  0  0  0
    4.2351   -0.3141    1.1307 H   0  0  0  0  0  0  0  0  0  0  0  0
   -1.3522   -0.0699   -0.0265 H   0  0  0  0  0  0  0  0  0  0  0  0
   -0.9896   -0.0445    6.2927 H   0  0  0  0  0  0  0  0  0  0  0  0
    0.5303    0.9201    6.3099 H   0  0  0  0  0  0  0  0  0  0  0  0
    0.6249   -0.8421    6.3140 H   0  0  0  0  0  0  0  0  0  0  0  0
  2  7  1  0  0  0  0
  2  1  1  0  0  0  0
  3  2  2  0  0  0  0
  4  5  2  0  0  0  0
  4  3  1  0  0  0  0
  5  6  1  0  0  0  0
  6  8  1  0  0  0  0
  6  7  2  0  0  0  0
  7 22  1  0  0  0  0
  9  5  1  0  0  0  0
 10  9  2  0  0  0  0
 10 11  1  0  0  0  0
 11 17  1  0  0  0  0
 12 11  1  0  0  0  0
 12 14  2  0  0  0  0
 13 12  1  0  0  0  0
 14 15  1  0  0  0  0
 15 16  2  0  0  0  0
 16 19  1  0  0  0  0
 17 18  2  0  0  0  0
 17 16  1  0  0  0  0
 19 25  1  0  0  0  0
 19 26  1  0  0  0  0
 19 27  1  0  0  0  0
 20  3  1  0  0  0  0
 21  4  1  0  0  0  0
 23  9  1  0  0  0  0
 24 13  1  0  0  0  0
M  END
