181552328.xyz
 OpenBabel08132112083D
COc1ccc(cc1OC(C)C)/C=N\n1c(S)nnc(c1=O)C
 41 42  0  0  0  0  0  0  0  0999 V2000
   -1.2830   -7.2231    0.8428 C   0  0  0  0  0  0  0  0  0  0  0  0
   -1.2345   -6.2823    1.8946 O   0  0  0  0  0  0  0  0  0  0  0  0
   -1.6857   -5.0297    1.6808 C   0  0  0  0  0  0  0  0  0  0  0  0
   -2.2064   -4.5658    0.4646 C   0  0  0  0  0  0  0  0  0  0  0  0
   -2.6511   -3.2484    0.3487 C   0  0  0  0  0  0  0  0  0  0  0  0
   -2.5604   -2.3609    1.4310 C   0  0  0  0  0  0  0  0  0  0  0  0
   -2.0729   -2.8420    2.6621 C   0  0  0  0  0  0  0  0  0  0  0  0
   -1.6352   -4.1521    2.7972 C   0  0  0  0  0  0  0  0  0  0  0  0
   -1.2140   -4.6008    4.0060 O   0  0  0  0  0  0  0  0  0  0  0  0
    0.2091   -4.8109    4.1720 C   0  0  0  0  0  0  0  0  0  0  0  0
    0.3580   -5.6627    5.4188 C   0  0  0  0  0  0  0  0  0  0  0  0
    0.9346   -3.4750    4.2594 C   0  0  0  0  0  0  0  0  0  0  0  0
   -2.9355   -0.9616    1.1995 C   0  0  0  0  0  0  0  0  0  0  0  0
   -2.3853    0.1313    1.5933 N   0  0  0  0  0  0  0  0  0  0  0  0
   -1.2228   -0.0076    2.3787 N   0  0  0  0  0  0  0  0  0  0  0  0
    0.0000    0.0000    1.7666 C   0  0  0  0  0  0  0  0  0  0  0  0
    0.0000    0.0000    0.0000 S   0  0  0  0  0  0  0  0  0  0  0  0
    1.1325    0.0000    2.4164 N   0  0  0  0  0  0  0  0  0  0  0  0
    1.1165    0.0374    3.7718 N   0  0  0  0  0  0  0  0  0  0  0  0
   -0.0092    0.0749    4.4284 C   0  0  0  0  0  0  0  0  0  0  0  0
   -1.3269    0.0459    3.7793 C   0  0  0  0  0  0  0  0  0  0  0  0
   -2.4037    0.0119    4.3448 O   0  0  0  0  0  0  0  0  0  0  0  0
    0.0051    0.1077    5.9228 C   0  0  0  0  0  0  0  0  0  0  0  0
   -2.3188   -7.3977    0.5036 H   0  0  0  0  0  0  0  0  0  0  0  0
   -0.6722   -6.9015   -0.0190 H   0  0  0  0  0  0  0  0  0  0  0  0
   -0.8741   -8.1590    1.2441 H   0  0  0  0  0  0  0  0  0  0  0  0
   -2.2727   -5.2292   -0.3969 H   0  0  0  0  0  0  0  0  0  0  0  0
   -3.0457   -2.8993   -0.6084 H   0  0  0  0  0  0  0  0  0  0  0  0
   -2.0827   -2.2228    3.5558 H   0  0  0  0  0  0  0  0  0  0  0  0
    0.5761   -5.3768    3.2988 H   0  0  0  0  0  0  0  0  0  0  0  0
    1.4179   -5.8919    5.6063 H   0  0  0  0  0  0  0  0  0  0  0  0
   -0.1954   -6.6058    5.3018 H   0  0  0  0  0  0  0  0  0  0  0  0
   -0.0453   -5.1298    6.2944 H   0  0  0  0  0  0  0  0  0  0  0  0
    0.5635   -2.8888    5.1142 H   0  0  0  0  0  0  0  0  0  0  0  0
    0.7985   -2.8765    3.3470 H   0  0  0  0  0  0  0  0  0  0  0  0
    2.0163   -3.6304    4.3920 H   0  0  0  0  0  0  0  0  0  0  0  0
   -3.7785   -0.7891    0.5153 H   0  0  0  0  0  0  0  0  0  0  0  0
    1.3531   -0.0060   -0.0247 H   0  0  0  0  0  0  0  0  0  0  0  0
   -0.5252    0.9980    6.2974 H   0  0  0  0  0  0  0  0  0  0  0  0
   -0.5304   -0.7651    6.3310 H   0  0  0  0  0  0  0  0  0  0  0  0
    1.0423    0.1116    6.2801 H   0  0  0  0  0  0  0  0  0  0  0  0
  1 26  1  0  0  0  0
  1  2  1  0  0  0  0
  3  2  1  0  0  0  0
  3  8  2  0  0  0  0
  4  3  1  0  0  0  0
  5  4  2  0  0  0  0
  5  6  1  0  0  0  0
  6  7  2  0  0  0  0
  7  8  1  0  0  0  0
  7 29  1  0  0  0  0
  8  9  1  0  0  0  0
  9 10  1  0  0  0  0
 10 12  1  0  0  0  0
 10 11  1  0  0  0  0
 11 31  1  0  0  0  0
 11 33  1  0  0  0  0
 12 36  1  0  0  0  0
 12 34  1  0  0  0  0
 13  6  1  0  0  0  0
 13 14  2  0  0  0  0
 14 15  1  0  0  0  0
 15 21  1  0  0  0  0
 16 15  1  0  0  0  0
 16 18  2  0  0  0  0
 17 16  1  0  0  0  0
 18 19  1  0  0  0  0
 19 20  2  0  0  0  0
 20 23  1  0  0  0  0
 21 22  2  0  0  0  0
 21 20  1  0  0  0  0
 23 41  1  0  0  0  0
 23 39  1  0  0  0  0
 23 40  1  0  0  0  0
 24  1  1  0  0  0  0
 25  1  1  0  0  0  0
 27  4  1  0  0  0  0
 28  5  1  0  0  0  0
 30 10  1  0  0  0  0
 32 11  1  0  0  0  0
 35 12  1  0  0  0  0
 37 13  1  0  0  0  0
 38 17  1  0  0  0  0
M  END
