181596232.xyz
 OpenBabel08132112083D
CCOc1ccc(cc1[N+](=O)[O-])/C=N\n1cnnc1S
 31 32  0  0  0  0  0  0  0  0999 V2000
   -5.2757   -5.1101    8.5594 C   0  0  0  0  0  0  0  0  0  0  0  0
   -5.3951   -4.3473    7.2609 C   0  0  0  0  0  0  0  0  0  0  0  0
   -4.3891   -3.3158    7.2636 O   0  0  0  0  0  0  0  0  0  0  0  0
   -4.1891   -2.6412    6.1176 C   0  0  0  0  0  0  0  0  0  0  0  0
   -4.9988   -1.5440    5.7859 C   0  0  0  0  0  0  0  0  0  0  0  0
   -4.7533   -0.7926    4.6413 C   0  0  0  0  0  0  0  0  0  0  0  0
   -3.6547   -1.0777    3.8092 C   0  0  0  0  0  0  0  0  0  0  0  0
   -2.8380   -2.1714    4.1294 C   0  0  0  0  0  0  0  0  0  0  0  0
   -3.1234   -2.9506    5.2458 C   0  0  0  0  0  0  0  0  0  0  0  0
   -2.2524   -4.1135    5.4947 N   0  0  0  0  0  0  0  0  0  0  0  0
   -1.0905   -4.0175    5.1406 O   0  0  0  0  0  0  0  0  0  0  0  0
   -2.7540   -5.0987    6.0101 O   0  0  0  0  0  0  0  0  0  0  0  0
   -3.4588   -0.2813    2.5809 C   0  0  0  0  0  0  0  0  0  0  0  0
   -2.3968    0.1189    1.9835 N   0  0  0  0  0  0  0  0  0  0  0  0
   -1.1543   -0.0441    2.5250 N   0  0  0  0  0  0  0  0  0  0  0  0
   -0.6779   -0.0184    3.8335 C   0  0  0  0  0  0  0  0  0  0  0  0
    0.6214    0.0063    3.8285 N   0  0  0  0  0  0  0  0  0  0  0  0
    1.0575    0.0000    2.5172 N   0  0  0  0  0  0  0  0  0  0  0  0
    0.0000   -0.0000    1.7508 C   0  0  0  0  0  0  0  0  0  0  0  0
    0.0000    0.0000    0.0000 S   0  0  0  0  0  0  0  0  0  0  0  0
   -5.4115   -4.4388    9.4210 H   0  0  0  0  0  0  0  0  0  0  0  0
   -4.2824   -5.5768    8.6302 H   0  0  0  0  0  0  0  0  0  0  0  0
   -6.0414   -5.8996    8.6058 H   0  0  0  0  0  0  0  0  0  0  0  0
   -5.2212   -5.0069    6.3969 H   0  0  0  0  0  0  0  0  0  0  0  0
   -6.3897   -3.8767    7.1529 H   0  0  0  0  0  0  0  0  0  0  0  0
   -5.8189   -1.2908    6.4599 H   0  0  0  0  0  0  0  0  0  0  0  0
   -5.4098    0.0457    4.3955 H   0  0  0  0  0  0  0  0  0  0  0  0
   -1.9797   -2.4466    3.5179 H   0  0  0  0  0  0  0  0  0  0  0  0
   -4.3796    0.0044    2.0548 H   0  0  0  0  0  0  0  0  0  0  0  0
   -1.3188    0.0164    4.7090 H   0  0  0  0  0  0  0  0  0  0  0  0
   -1.3355    0.2215   -0.0701 H   0  0  0  0  0  0  0  0  0  0  0  0
  1 23  1  0  0  0  0
  1 22  1  0  0  0  0
  1 21  1  0  0  0  0
  2  3  1  0  0  0  0
  2  1  1  0  0  0  0
  4  3  1  0  0  0  0
  5  4  1  0  0  0  0
  5 26  1  0  0  0  0
  6  5  2  0  0  0  0
  7  8  2  0  0  0  0
  7  6  1  0  0  0  0
  8  9  1  0  0  0  0
  9 10  1  0  0  0  0
  9  4  2  0  0  0  0
 10 12  2  0  0  0  0
 11 10  2  0  0  0  0
 13  7  1  0  0  0  0
 14 15  1  0  0  0  0
 14 13  2  0  0  0  0
 15 16  1  0  0  0  0
 16 30  1  0  0  0  0
 17 16  2  0  0  0  0
 18 17  1  0  0  0  0
 19 18  2  0  0  0  0
 19 15  1  0  0  0  0
 20 19  1  0  0  0  0
 24  2  1  0  0  0  0
 25  2  1  0  0  0  0
 27  6  1  0  0  0  0
 28  8  1  0  0  0  0
 29 13  1  0  0  0  0
 31 20  1  0  0  0  0
M  END
