181596391.xyz
 OpenBabel08132112083D
Clc1cccc(c1Cl)/C=N\n1cnnc1S
 22 23  0  0  0  0  0  0  0  0999 V2000
   -0.6945    4.9894    0.5653 Cl  0  0  0  0  0  0  0  0  0  0  0  0
   -1.5595    3.5754    0.0529 C   0  0  0  0  0  0  0  0  0  0  0  0
   -1.8728    3.4273   -1.2998 C   0  0  0  0  0  0  0  0  0  0  0  0
   -2.5930    2.3141   -1.7330 C   0  0  0  0  0  0  0  0  0  0  0  0
   -2.9808    1.3416   -0.8174 C   0  0  0  0  0  0  0  0  0  0  0  0
   -2.6327    1.4453    0.5405 C   0  0  0  0  0  0  0  0  0  0  0  0
   -1.9473    2.5948    0.9838 C   0  0  0  0  0  0  0  0  0  0  0  0
   -1.6215    2.8410    2.6686 Cl  0  0  0  0  0  0  0  0  0  0  0  0
   -3.0663    0.3434    1.4312 C   0  0  0  0  0  0  0  0  0  0  0  0
   -2.4530   -0.3383    2.3256 N   0  0  0  0  0  0  0  0  0  0  0  0
   -1.1180   -0.1547    2.5696 N   0  0  0  0  0  0  0  0  0  0  0  0
   -0.5973   -0.2568    3.8431 C   0  0  0  0  0  0  0  0  0  0  0  0
    0.6998   -0.1439    3.8164 N   0  0  0  0  0  0  0  0  0  0  0  0
    1.0798    0.0000    2.5035 N   0  0  0  0  0  0  0  0  0  0  0  0
   -0.0000    0.0000    1.7592 C   0  0  0  0  0  0  0  0  0  0  0  0
    0.0000    0.0000    0.0000 S   0  0  0  0  0  0  0  0  0  0  0  0
   -1.5562    4.2019   -1.9993 H   0  0  0  0  0  0  0  0  0  0  0  0
   -2.8488    2.2096   -2.7890 H   0  0  0  0  0  0  0  0  0  0  0  0
   -3.5349    0.4617   -1.1511 H   0  0  0  0  0  0  0  0  0  0  0  0
   -4.1106    0.0289    1.2974 H   0  0  0  0  0  0  0  0  0  0  0  0
   -1.2361   -0.3798    4.7152 H   0  0  0  0  0  0  0  0  0  0  0  0
    1.2896   -0.4110   -0.0360 H   0  0  0  0  0  0  0  0  0  0  0  0
  2  1  1  0  0  0  0
  2  7  2  0  0  0  0
  3  2  1  0  0  0  0
  4  3  2  0  0  0  0
  4  5  1  0  0  0  0
  5  6  2  0  0  0  0
  6  7  1  0  0  0  0
  6  9  1  0  0  0  0
  7  8  1  0  0  0  0
  9 10  2  0  0  0  0
 10 11  1  0  0  0  0
 11 12  1  0  0  0  0
 12 21  1  0  0  0  0
 13 12  2  0  0  0  0
 14 13  1  0  0  0  0
 15 14  2  0  0  0  0
 15 11  1  0  0  0  0
 16 15  1  0  0  0  0
 17  3  1  0  0  0  0
 18  4  1  0  0  0  0
 19  5  1  0  0  0  0
 20  9  1  0  0  0  0
 22 16  1  0  0  0  0
M  END
