181554020.xyz
 OpenBabel08132112083D
CCOc1cc(OCC)ccc1/C=N\n1c(S)nnc(c1=O)CCC(=O)O
 47 48  0  0  0  0  0  0  0  0999 V2000
    7.5200    0.4072    4.1490 C   0  0  0  0  0  0  0  0  0  0  0  0
    6.5841    1.5815    4.3445 C   0  0  0  0  0  0  0  0  0  0  0  0
    5.4415    1.3686    3.5260 O   0  0  0  0  0  0  0  0  0  0  0  0
    4.4191    2.2463    3.5377 C   0  0  0  0  0  0  0  0  0  0  0  0
    4.4229    3.4302    4.2882 C   0  0  0  0  0  0  0  0  0  0  0  0
    3.3074    4.2812    4.2421 C   0  0  0  0  0  0  0  0  0  0  0  0
    3.2205    5.4351    4.9325 O   0  0  0  0  0  0  0  0  0  0  0  0
    4.2910    5.8467    5.7717 C   0  0  0  0  0  0  0  0  0  0  0  0
    3.9008    7.1613    6.4149 C   0  0  0  0  0  0  0  0  0  0  0  0
    2.1982    3.9564    3.4384 C   0  0  0  0  0  0  0  0  0  0  0  0
    2.2042    2.7781    2.7108 C   0  0  0  0  0  0  0  0  0  0  0  0
    3.3002    1.8964    2.7485 C   0  0  0  0  0  0  0  0  0  0  0  0
    3.3381    0.6556    1.9815 C   0  0  0  0  0  0  0  0  0  0  0  0
    2.3917   -0.1823    1.7315 N   0  0  0  0  0  0  0  0  0  0  0  0
    1.1996   -0.0000    2.4406 N   0  0  0  0  0  0  0  0  0  0  0  0
    0.0000    0.0000    1.7640 C   0  0  0  0  0  0  0  0  0  0  0  0
    0.0000    0.0000    0.0000 S   0  0  0  0  0  0  0  0  0  0  0  0
   -1.1600    0.0618    2.3539 N   0  0  0  0  0  0  0  0  0  0  0  0
   -1.2113    0.1018    3.7063 N   0  0  0  0  0  0  0  0  0  0  0  0
   -0.1305    0.0262    4.4258 C   0  0  0  0  0  0  0  0  0  0  0  0
    1.2177   -0.0703    3.8581 C   0  0  0  0  0  0  0  0  0  0  0  0
    2.2501   -0.1615    4.4921 O   0  0  0  0  0  0  0  0  0  0  0  0
   -0.2303    0.0433    5.9247 C   0  0  0  0  0  0  0  0  0  0  0  0
   -1.6630    0.1376    6.4275 C   0  0  0  0  0  0  0  0  0  0  0  0
   -2.4573   -1.1122    6.1175 C   0  0  0  0  0  0  0  0  0  0  0  0
   -1.9869   -2.2045    5.9156 O   0  0  0  0  0  0  0  0  0  0  0  0
   -3.7840   -0.8852    6.1428 O   0  0  0  0  0  0  0  0  0  0  0  0
    7.8335    0.3311    3.0968 H   0  0  0  0  0  0  0  0  0  0  0  0
    7.0221   -0.5323    4.4314 H   0  0  0  0  0  0  0  0  0  0  0  0
    8.4184    0.5302    4.7727 H   0  0  0  0  0  0  0  0  0  0  0  0
    6.2686    1.6643    5.4001 H   0  0  0  0  0  0  0  0  0  0  0  0
    7.0743    2.5319    4.0630 H   0  0  0  0  0  0  0  0  0  0  0  0
    5.2806    3.6802    4.9048 H   0  0  0  0  0  0  0  0  0  0  0  0
    5.2135    5.9585    5.1723 H   0  0  0  0  0  0  0  0  0  0  0  0
    4.4826    5.0732    6.5382 H   0  0  0  0  0  0  0  0  0  0  0  0
    3.7149    7.9277    5.6476 H   0  0  0  0  0  0  0  0  0  0  0  0
    2.9851    7.0426    7.0132 H   0  0  0  0  0  0  0  0  0  0  0  0
    4.7071    7.5152    7.0752 H   0  0  0  0  0  0  0  0  0  0  0  0
    1.3571    4.6490    3.4025 H   0  0  0  0  0  0  0  0  0  0  0  0
    1.3519    2.5433    2.0721 H   0  0  0  0  0  0  0  0  0  0  0  0
    4.2953    0.3846    1.5194 H   0  0  0  0  0  0  0  0  0  0  0  0
    1.3131   -0.3288   -0.0853 H   0  0  0  0  0  0  0  0  0  0  0  0
    0.2490   -0.8721    6.3082 H   0  0  0  0  0  0  0  0  0  0  0  0
    0.3768    0.8810    6.3071 H   0  0  0  0  0  0  0  0  0  0  0  0
   -1.6690    0.2592    7.5244 H   0  0  0  0  0  0  0  0  0  0  0  0
   -2.1917    1.0010    6.0020 H   0  0  0  0  0  0  0  0  0  0  0  0
   -4.2120   -1.7367    5.9487 H   0  0  0  0  0  0  0  0  0  0  0  0
  1  2  1  0  0  0  0
  1 29  1  0  0  0  0
  1 30  1  0  0  0  0
  2 31  1  0  0  0  0
  3  4  1  0  0  0  0
  3  2  1  0  0  0  0
  4  5  2  0  0  0  0
  5 33  1  0  0  0  0
  6  5  1  0  0  0  0
  6  7  1  0  0  0  0
  7  8  1  0  0  0  0
  8  9  1  0  0  0  0
  8 35  1  0  0  0  0
  9 37  1  0  0  0  0
  9 38  1  0  0  0  0
 10  6  2  0  0  0  0
 11 12  2  0  0  0  0
 11 10  1  0  0  0  0
 12  4  1  0  0  0  0
 13 12  1  0  0  0  0
 14 13  2  0  0  0  0
 14 15  1  0  0  0  0
 15 21  1  0  0  0  0
 16 18  2  0  0  0  0
 16 15  1  0  0  0  0
 17 16  1  0  0  0  0
 18 19  1  0  0  0  0
 19 20  2  0  0  0  0
 20 23  1  0  0  0  0
 21 20  1  0  0  0  0
 21 22  2  0  0  0  0
 23 44  1  0  0  0  0
 23 43  1  0  0  0  0
 23 24  1  0  0  0  0
 24 45  1  0  0  0  0
 25 27  1  0  0  0  0
 25 24  1  0  0  0  0
 26 25  2  0  0  0  0
 28  1  1  0  0  0  0
 32  2  1  0  0  0  0
 34  8  1  0  0  0  0
 36  9  1  0  0  0  0
 39 10  1  0  0  0  0
 40 11  1  0  0  0  0
 41 13  1  0  0  0  0
 42 17  1  0  0  0  0
 46 24  1  0  0  0  0
 47 27  1  0  0  0  0
M  END
