181599228.xyz
 OpenBabel08132112083D
CCc1ccc(cc1)/C=N\n1c(S)nnc1C(CC)CC
 43 44  0  0  0  0  0  0  0  0999 V2000
    1.8527   -5.5547    6.2895 C   0  0  0  0  0  0  0  0  0  0  0  0
    2.5319   -5.8404    4.9411 C   0  0  0  0  0  0  0  0  0  0  0  0
    2.7531   -4.5765    4.1490 C   0  0  0  0  0  0  0  0  0  0  0  0
    3.9438   -3.8451    4.2719 C   0  0  0  0  0  0  0  0  0  0  0  0
    4.1067   -2.6292    3.6116 C   0  0  0  0  0  0  0  0  0  0  0  0
    3.0648   -2.0901    2.8386 C   0  0  0  0  0  0  0  0  0  0  0  0
    1.8813   -2.8369    2.6817 C   0  0  0  0  0  0  0  0  0  0  0  0
    1.7398   -4.0630    3.3224 C   0  0  0  0  0  0  0  0  0  0  0  0
    3.2635   -0.7725    2.2151 C   0  0  0  0  0  0  0  0  0  0  0  0
    2.4286    0.1846    2.0143 N   0  0  0  0  0  0  0  0  0  0  0  0
    1.1458   -0.0000    2.5218 N   0  0  0  0  0  0  0  0  0  0  0  0
   -0.0000    0.0000    1.7581 C   0  0  0  0  0  0  0  0  0  0  0  0
    0.0000    0.0000    0.0000 S   0  0  0  0  0  0  0  0  0  0  0  0
   -1.0504   -0.1225    2.5314 N   0  0  0  0  0  0  0  0  0  0  0  0
   -0.6023   -0.1599    3.8282 N   0  0  0  0  0  0  0  0  0  0  0  0
    0.7092   -0.0858    3.8358 C   0  0  0  0  0  0  0  0  0  0  0  0
    1.5904    0.0211    5.0474 C   0  0  0  0  0  0  0  0  0  0  0  0
    1.5297   -1.2436    5.9372 C   0  0  0  0  0  0  0  0  0  0  0  0
    0.2036   -1.4751    6.6591 C   0  0  0  0  0  0  0  0  0  0  0  0
    1.2672    1.3318    5.7986 C   0  0  0  0  0  0  0  0  0  0  0  0
    2.1634    1.5940    7.0065 C   0  0  0  0  0  0  0  0  0  0  0  0
    1.6908   -6.4848    6.8563 H   0  0  0  0  0  0  0  0  0  0  0  0
    0.8760   -5.0674    6.1431 H   0  0  0  0  0  0  0  0  0  0  0  0
    2.4685   -4.8801    6.9049 H   0  0  0  0  0  0  0  0  0  0  0  0
    1.9095   -6.5374    4.3566 H   0  0  0  0  0  0  0  0  0  0  0  0
    3.4974   -6.3436    5.1129 H   0  0  0  0  0  0  0  0  0  0  0  0
    4.7525   -4.2348    4.8955 H   0  0  0  0  0  0  0  0  0  0  0  0
    5.0420   -2.0734    3.7184 H   0  0  0  0  0  0  0  0  0  0  0  0
    1.0751   -2.4657    2.0497 H   0  0  0  0  0  0  0  0  0  0  0  0
    0.8138   -4.6288    3.1932 H   0  0  0  0  0  0  0  0  0  0  0  0
    4.2814   -0.5433    1.8697 H   0  0  0  0  0  0  0  0  0  0  0  0
    1.2075    0.6072   -0.0946 H   0  0  0  0  0  0  0  0  0  0  0  0
    2.6271    0.1015    4.6837 H   0  0  0  0  0  0  0  0  0  0  0  0
    1.7591   -2.1150    5.3086 H   0  0  0  0  0  0  0  0  0  0  0  0
    2.3508   -1.1811    6.6707 H   0  0  0  0  0  0  0  0  0  0  0  0
    0.2220   -2.4378    7.1949 H   0  0  0  0  0  0  0  0  0  0  0  0
   -0.0017   -0.6887    7.4027 H   0  0  0  0  0  0  0  0  0  0  0  0
   -0.6341   -1.4826    5.9469 H   0  0  0  0  0  0  0  0  0  0  0  0
    0.2076    1.3142    6.0982 H   0  0  0  0  0  0  0  0  0  0  0  0
    1.3609    2.1647    5.0817 H   0  0  0  0  0  0  0  0  0  0  0  0
    2.0166    0.8449    7.7999 H   0  0  0  0  0  0  0  0  0  0  0  0
    1.9514    2.5819    7.4444 H   0  0  0  0  0  0  0  0  0  0  0  0
    3.2306    1.5763    6.7269 H   0  0  0  0  0  0  0  0  0  0  0  0
  1 22  1  0  0  0  0
  1 24  1  0  0  0  0
  2 26  1  0  0  0  0
  2  1  1  0  0  0  0
  3  4  1  0  0  0  0
  3  2  1  0  0  0  0
  4 27  1  0  0  0  0
  5 28  1  0  0  0  0
  5  4  2  0  0  0  0
  6  5  1  0  0  0  0
  7  6  2  0  0  0  0
  7  8  1  0  0  0  0
  8  3  2  0  0  0  0
  9  6  1  0  0  0  0
 10  9  2  0  0  0  0
 10 11  1  0  0  0  0
 11 16  1  0  0  0  0
 12 11  1  0  0  0  0
 12 14  2  0  0  0  0
 13 12  1  0  0  0  0
 14 15  1  0  0  0  0
 15 16  2  0  0  0  0
 16 17  1  0  0  0  0
 17 20  1  0  0  0  0
 17 18  1  0  0  0  0
 18 19  1  0  0  0  0
 18 35  1  0  0  0  0
 19 36  1  0  0  0  0
 19 37  1  0  0  0  0
 20 39  1  0  0  0  0
 20 21  1  0  0  0  0
 21 42  1  0  0  0  0
 21 41  1  0  0  0  0
 23  1  1  0  0  0  0
 25  2  1  0  0  0  0
 29  7  1  0  0  0  0
 30  8  1  0  0  0  0
 31  9  1  0  0  0  0
 32 13  1  0  0  0  0
 33 17  1  0  0  0  0
 34 18  1  0  0  0  0
 38 19  1  0  0  0  0
 40 20  1  0  0  0  0
 43 21  1  0  0  0  0
M  END
