181552319.xyz
 OpenBabel08132112083D
CC(COc1ccc(cc1)/C=N\n1c(S)nnc(c1=O)C)C
 40 41  0  0  0  0  0  0  0  0999 V2000
    2.9316    8.1807    6.8531 C   0  0  0  0  0  0  0  0  0  0  0  0
    3.9969    7.1806    6.3958 C   0  0  0  0  0  0  0  0  0  0  0  0
    3.3441    6.0746    5.5747 C   0  0  0  0  0  0  0  0  0  0  0  0
    4.3621    5.2228    5.0633 O   0  0  0  0  0  0  0  0  0  0  0  0
    4.0347    4.1393    4.3379 C   0  0  0  0  0  0  0  0  0  0  0  0
    5.1043    3.3469    3.8811 C   0  0  0  0  0  0  0  0  0  0  0  0
    4.8532    2.2141    3.1254 C   0  0  0  0  0  0  0  0  0  0  0  0
    3.5359    1.8088    2.8189 C   0  0  0  0  0  0  0  0  0  0  0  0
    2.4778    2.6208    3.2694 C   0  0  0  0  0  0  0  0  0  0  0  0
    2.7155    3.7726    4.0112 C   0  0  0  0  0  0  0  0  0  0  0  0
    3.3784    0.6146    1.9950 C   0  0  0  0  0  0  0  0  0  0  0  0
    2.3852   -0.1637    1.7322 N   0  0  0  0  0  0  0  0  0  0  0  0
    1.2003   -0.0000    2.4469 N   0  0  0  0  0  0  0  0  0  0  0  0
   -0.0000    0.0000    1.7625 C   0  0  0  0  0  0  0  0  0  0  0  0
    0.0000    0.0000    0.0000 S   0  0  0  0  0  0  0  0  0  0  0  0
   -1.1601    0.0460    2.3526 N   0  0  0  0  0  0  0  0  0  0  0  0
   -1.2254    0.0504    3.7065 N   0  0  0  0  0  0  0  0  0  0  0  0
   -0.1462   -0.0631    4.4282 C   0  0  0  0  0  0  0  0  0  0  0  0
    1.2044   -0.1470    3.8594 C   0  0  0  0  0  0  0  0  0  0  0  0
    2.2338   -0.2727    4.4917 O   0  0  0  0  0  0  0  0  0  0  0  0
   -0.2504   -0.0961    5.9201 C   0  0  0  0  0  0  0  0  0  0  0  0
    4.7868    6.6088    7.5754 C   0  0  0  0  0  0  0  0  0  0  0  0
    2.3886    8.6199    6.0006 H   0  0  0  0  0  0  0  0  0  0  0  0
    2.1909    7.6969    7.5123 H   0  0  0  0  0  0  0  0  0  0  0  0
    3.3891    9.0055    7.4203 H   0  0  0  0  0  0  0  0  0  0  0  0
    4.7019    7.7007    5.7227 H   0  0  0  0  0  0  0  0  0  0  0  0
    2.7633    6.5029    4.7377 H   0  0  0  0  0  0  0  0  0  0  0  0
    2.6487    5.4894    6.2058 H   0  0  0  0  0  0  0  0  0  0  0  0
    6.1210    3.6525    4.1324 H   0  0  0  0  0  0  0  0  0  0  0  0
    5.6927    1.6121    2.7685 H   0  0  0  0  0  0  0  0  0  0  0  0
    1.4471    2.3700    3.0247 H   0  0  0  0  0  0  0  0  0  0  0  0
    1.8704    4.3791    4.3332 H   0  0  0  0  0  0  0  0  0  0  0  0
    4.2825    0.3216    1.4432 H   0  0  0  0  0  0  0  0  0  0  0  0
    1.3235   -0.2848   -0.0828 H   0  0  0  0  0  0  0  0  0  0  0  0
    0.1580   -1.0404    6.3154 H   0  0  0  0  0  0  0  0  0  0  0  0
   -1.3021    0.0062    6.2151 H   0  0  0  0  0  0  0  0  0  0  0  0
    0.3491    0.7125    6.3690 H   0  0  0  0  0  0  0  0  0  0  0  0
    5.2994    7.4099    8.1303 H   0  0  0  0  0  0  0  0  0  0  0  0
    5.5429    5.8879    7.2330 H   0  0  0  0  0  0  0  0  0  0  0  0
    4.1152    6.0888    8.2801 H   0  0  0  0  0  0  0  0  0  0  0  0
  1 25  1  0  0  0  0
  1 24  1  0  0  0  0
  2  1  1  0  0  0  0
  2 22  1  0  0  0  0
  3 28  1  0  0  0  0
  3  2  1  0  0  0  0
  4  3  1  0  0  0  0
  5  4  1  0  0  0  0
  6 29  1  0  0  0  0
  6  5  2  0  0  0  0
  7  6  1  0  0  0  0
  8  7  2  0  0  0  0
  8  9  1  0  0  0  0
  9 10  2  0  0  0  0
 10 32  1  0  0  0  0
 10  5  1  0  0  0  0
 11  8  1  0  0  0  0
 12 11  2  0  0  0  0
 12 13  1  0  0  0  0
 13 19  1  0  0  0  0
 14 16  2  0  0  0  0
 14 13  1  0  0  0  0
 15 14  1  0  0  0  0
 16 17  1  0  0  0  0
 17 18  2  0  0  0  0
 18 21  1  0  0  0  0
 19 18  1  0  0  0  0
 19 20  2  0  0  0  0
 21 36  1  0  0  0  0
 21 35  1  0  0  0  0
 21 37  1  0  0  0  0
 22 38  1  0  0  0  0
 22 40  1  0  0  0  0
 23  1  1  0  0  0  0
 26  2  1  0  0  0  0
 27  3  1  0  0  0  0
 30  7  1  0  0  0  0
 31  9  1  0  0  0  0
 33 11  1  0  0  0  0
 34 15  1  0  0  0  0
 39 22  1  0  0  0  0
M  END
