181606348.xyz
 OpenBabel08132112083D
CC(Oc1ccc(cc1Cl)/C=N\n1c(S)nnc1C(F)(F)F)C
 35 36  0  0  0  0  0  0  0  0999 V2000
   -1.4651    5.7704   -0.2099 C   0  0  0  0  0  0  0  0  0  0  0  0
   -0.1074    6.4248    0.0159 C   0  0  0  0  0  0  0  0  0  0  0  0
    0.9316    5.6383   -0.5989 O   0  0  0  0  0  0  0  0  0  0  0  0
    1.3705    4.5010   -0.0515 C   0  0  0  0  0  0  0  0  0  0  0  0
    0.9946    4.0116    1.2135 C   0  0  0  0  0  0  0  0  0  0  0  0
    1.4964    2.8091    1.6956 C   0  0  0  0  0  0  0  0  0  0  0  0
    2.4031    2.0510    0.9330 C   0  0  0  0  0  0  0  0  0  0  0  0
    2.8222    2.5602   -0.3111 C   0  0  0  0  0  0  0  0  0  0  0  0
    2.3073    3.7501   -0.8030 C   0  0  0  0  0  0  0  0  0  0  0  0
    2.8128    4.3439   -2.3577 Cl  0  0  0  0  0  0  0  0  0  0  0  0
    2.9618    0.7686    1.3704 C   0  0  0  0  0  0  0  0  0  0  0  0
    2.4707   -0.1619    2.1110 N   0  0  0  0  0  0  0  0  0  0  0  0
    1.1466    0.0000    2.5144 N   0  0  0  0  0  0  0  0  0  0  0  0
    0.0000   -0.0000    1.7542 C   0  0  0  0  0  0  0  0  0  0  0  0
    0.0000    0.0000    0.0000 S   0  0  0  0  0  0  0  0  0  0  0  0
   -1.0570   -0.0180    2.5422 N   0  0  0  0  0  0  0  0  0  0  0  0
   -0.6176   -0.0326    3.8342 N   0  0  0  0  0  0  0  0  0  0  0  0
    0.6915   -0.0433    3.8105 C   0  0  0  0  0  0  0  0  0  0  0  0
    1.6075    0.0426    4.9936 C   0  0  0  0  0  0  0  0  0  0  0  0
    2.4503   -0.9966    5.0552 F   0  0  0  0  0  0  0  0  0  0  0  0
    0.9164    0.0924    6.1277 F   0  0  0  0  0  0  0  0  0  0  0  0
    2.3646    1.1617    4.9110 F   0  0  0  0  0  0  0  0  0  0  0  0
    0.0018    7.8054   -0.6089 C   0  0  0  0  0  0  0  0  0  0  0  0
   -1.6736    5.7012   -1.2886 H   0  0  0  0  0  0  0  0  0  0  0  0
   -1.5070    4.7565    0.2139 H   0  0  0  0  0  0  0  0  0  0  0  0
   -2.2586    6.3702    0.2614 H   0  0  0  0  0  0  0  0  0  0  0  0
    0.1037    6.5024    1.0969 H   0  0  0  0  0  0  0  0  0  0  0  0
    0.2975    4.5745    1.8319 H   0  0  0  0  0  0  0  0  0  0  0  0
    1.1950    2.4762    2.6871 H   0  0  0  0  0  0  0  0  0  0  0  0
    3.5432    2.0105   -0.9186 H   0  0  0  0  0  0  0  0  0  0  0  0
    3.9707    0.5326    1.0056 H   0  0  0  0  0  0  0  0  0  0  0  0
   -1.2828   -0.4266   -0.0509 H   0  0  0  0  0  0  0  0  0  0  0  0
   -0.1631    7.7452   -1.6955 H   0  0  0  0  0  0  0  0  0  0  0  0
   -0.7515    8.4801   -0.1757 H   0  0  0  0  0  0  0  0  0  0  0  0
    1.0001    8.2316   -0.4335 H   0  0  0  0  0  0  0  0  0  0  0  0
  1  2  1  0  0  0  0
  1 25  1  0  0  0  0
  1 26  1  0  0  0  0
  2 27  1  0  0  0  0
  3  4  1  0  0  0  0
  3  2  1  0  0  0  0
  4  5  2  0  0  0  0
  5  6  1  0  0  0  0
  5 28  1  0  0  0  0
  6 29  1  0  0  0  0
  7 11  1  0  0  0  0
  7  6  2  0  0  0  0
  8  7  1  0  0  0  0
  9  8  2  0  0  0  0
  9  4  1  0  0  0  0
 10  9  1  0  0  0  0
 11 12  2  0  0  0  0
 12 13  1  0  0  0  0
 13 18  1  0  0  0  0
 14 13  1  0  0  0  0
 14 16  2  0  0  0  0
 15 14  1  0  0  0  0
 16 17  1  0  0  0  0
 18 17  2  0  0  0  0
 18 19  1  0  0  0  0
 19 20  1  0  0  0  0
 19 21  1  0  0  0  0
 22 19  1  0  0  0  0
 23 35  1  0  0  0  0
 23 34  1  0  0  0  0
 23  2  1  0  0  0  0
 24  1  1  0  0  0  0
 30  8  1  0  0  0  0
 31 11  1  0  0  0  0
 32 15  1  0  0  0  0
 33 23  1  0  0  0  0
M  END
