181601619.xyz
 OpenBabel08132112083D
Sc1nnc(n1/N=C\c1ccccc1OCc1ccccc1)Cc1ccccc1
 49 52  0  0  0  0  0  0  0  0999 V2000
    0.0000    0.0000    0.0000 S   0  0  0  0  0  0  0  0  0  0  0  0
   -0.0000    0.0000    1.7569 C   0  0  0  0  0  0  0  0  0  0  0  0
   -1.0485   -0.1113    2.5342 N   0  0  0  0  0  0  0  0  0  0  0  0
   -0.5962   -0.1373    3.8323 N   0  0  0  0  0  0  0  0  0  0  0  0
    0.7135   -0.0685    3.8278 C   0  0  0  0  0  0  0  0  0  0  0  0
    1.1511    0.0000    2.5144 N   0  0  0  0  0  0  0  0  0  0  0  0
    2.4227    0.2196    2.0028 N   0  0  0  0  0  0  0  0  0  0  0  0
    3.3304   -0.6382    2.3041 C   0  0  0  0  0  0  0  0  0  0  0  0
    3.2136   -1.9296    2.9992 C   0  0  0  0  0  0  0  0  0  0  0  0
    2.1418   -2.8056    2.7567 C   0  0  0  0  0  0  0  0  0  0  0  0
    2.1009   -4.0631    3.3537 C   0  0  0  0  0  0  0  0  0  0  0  0
    3.1372   -4.4533    4.2060 C   0  0  0  0  0  0  0  0  0  0  0  0
    4.2146   -3.6032    4.4647 C   0  0  0  0  0  0  0  0  0  0  0  0
    4.2569   -2.3393    3.8626 C   0  0  0  0  0  0  0  0  0  0  0  0
    5.2388   -1.4230    4.0699 O   0  0  0  0  0  0  0  0  0  0  0  0
    6.3875   -1.7718    4.8347 C   0  0  0  0  0  0  0  0  0  0  0  0
    6.1263   -1.9084    6.3191 C   0  0  0  0  0  0  0  0  0  0  0  0
    5.1964   -1.0849    6.9672 C   0  0  0  0  0  0  0  0  0  0  0  0
    4.9835   -1.2073    8.3417 C   0  0  0  0  0  0  0  0  0  0  0  0
    5.7020   -2.1481    9.0853 C   0  0  0  0  0  0  0  0  0  0  0  0
    6.6343   -2.9692    8.4457 C   0  0  0  0  0  0  0  0  0  0  0  0
    6.8402   -2.8522    7.0687 C   0  0  0  0  0  0  0  0  0  0  0  0
    1.5801    0.0810    5.0356 C   0  0  0  0  0  0  0  0  0  0  0  0
    2.1852    1.4696    5.1424 C   0  0  0  0  0  0  0  0  0  0  0  0
    1.3629    2.5667    5.4377 C   0  0  0  0  0  0  0  0  0  0  0  0
    1.8980    3.8526    5.5237 C   0  0  0  0  0  0  0  0  0  0  0  0
    3.2649    4.0612    5.3103 C   0  0  0  0  0  0  0  0  0  0  0  0
    4.0888    2.9764    5.0042 C   0  0  0  0  0  0  0  0  0  0  0  0
    3.5502    1.6889    4.9163 C   0  0  0  0  0  0  0  0  0  0  0  0
    1.2347    0.5528   -0.0842 H   0  0  0  0  0  0  0  0  0  0  0  0
    4.3339   -0.3588    1.9612 H   0  0  0  0  0  0  0  0  0  0  0  0
    1.3493   -2.5026    2.0720 H   0  0  0  0  0  0  0  0  0  0  0  0
    1.2648   -4.7351    3.1536 H   0  0  0  0  0  0  0  0  0  0  0  0
    3.1092   -5.4338    4.6870 H   0  0  0  0  0  0  0  0  0  0  0  0
    4.9960   -3.9180    5.1529 H   0  0  0  0  0  0  0  0  0  0  0  0
    7.0940   -0.9487    4.6458 H   0  0  0  0  0  0  0  0  0  0  0  0
    6.8410   -2.6958    4.4358 H   0  0  0  0  0  0  0  0  0  0  0  0
    4.6350   -0.3447    6.3966 H   0  0  0  0  0  0  0  0  0  0  0  0
    4.2524   -0.5613    8.8332 H   0  0  0  0  0  0  0  0  0  0  0  0
    5.5337   -2.2429   10.1605 H   0  0  0  0  0  0  0  0  0  0  0  0
    7.1974   -3.7099    9.0184 H   0  0  0  0  0  0  0  0  0  0  0  0
    7.5613   -3.5069    6.5704 H   0  0  0  0  0  0  0  0  0  0  0  0
    0.9201   -0.1146    5.8927 H   0  0  0  0  0  0  0  0  0  0  0  0
    2.3708   -0.6809    5.0514 H   0  0  0  0  0  0  0  0  0  0  0  0
    0.2927    2.4040    5.5912 H   0  0  0  0  0  0  0  0  0  0  0  0
    1.2455    4.6975    5.7573 H   0  0  0  0  0  0  0  0  0  0  0  0
    3.6839    5.0680    5.3783 H   0  0  0  0  0  0  0  0  0  0  0  0
    5.1561    3.1308    4.8275 H   0  0  0  0  0  0  0  0  0  0  0  0
    4.1958    0.8480    4.6553 H   0  0  0  0  0  0  0  0  0  0  0  0
  1  2  1  0  0  0  0
  2  6  1  0  0  0  0
  2  3  2  0  0  0  0
  3  4  1  0  0  0  0
  5  4  2  0  0  0  0
  5 23  1  0  0  0  0
  6  5  1  0  0  0  0
  7  8  2  0  0  0  0
  7  6  1  0  0  0  0
  8  9  1  0  0  0  0
  9 14  1  0  0  0  0
 10  9  2  0  0  0  0
 10 11  1  0  0  0  0
 11 12  2  0  0  0  0
 12 13  1  0  0  0  0
 12 34  1  0  0  0  0
 13 35  1  0  0  0  0
 14 15  1  0  0  0  0
 14 13  2  0  0  0  0
 15 16  1  0  0  0  0
 16 17  1  0  0  0  0
 17 18  2  0  0  0  0
 17 22  1  0  0  0  0
 18 19  1  0  0  0  0
 19 39  1  0  0  0  0
 19 20  2  0  0  0  0
 20 40  1  0  0  0  0
 21 41  1  0  0  0  0
 21 20  1  0  0  0  0
 22 21  2  0  0  0  0
 23 44  1  0  0  0  0
 23 24  1  0  0  0  0
 23 43  1  0  0  0  0
 24 25  2  0  0  0  0
 25 26  1  0  0  0  0
 25 45  1  0  0  0  0
 26 46  1  0  0  0  0
 27 47  1  0  0  0  0
 27 26  2  0  0  0  0
 28 27  1  0  0  0  0
 29 28  2  0  0  0  0
 29 24  1  0  0  0  0
 30  1  1  0  0  0  0
 31  8  1  0  0  0  0
 32 10  1  0  0  0  0
 33 11  1  0  0  0  0
 36 16  1  0  0  0  0
 37 16  1  0  0  0  0
 38 18  1  0  0  0  0
 42 22  1  0  0  0  0
 48 28  1  0  0  0  0
 49 29  1  0  0  0  0
M  END
