181600716.xyz
 OpenBabel08132112083D
Sc1nnc(n1/N=C\c1cccc(c1)C(F)(F)F)CCc1ccccc1
 41 43  0  0  0  0  0  0  0  0999 V2000
    0.0000    0.0000    0.0000 S   0  0  0  0  0  0  0  0  0  0  0  0
   -0.0000    0.0000    1.7597 C   0  0  0  0  0  0  0  0  0  0  0  0
    1.0565   -0.0000    2.5328 N   0  0  0  0  0  0  0  0  0  0  0  0
    0.6314   -0.0906    3.8371 N   0  0  0  0  0  0  0  0  0  0  0  0
   -0.6764   -0.1608    3.8437 C   0  0  0  0  0  0  0  0  0  0  0  0
   -1.1436   -0.0816    2.5421 N   0  0  0  0  0  0  0  0  0  0  0  0
   -2.4624   -0.2957    2.1945 N   0  0  0  0  0  0  0  0  0  0  0  0
   -3.0120    0.4820    1.3340 C   0  0  0  0  0  0  0  0  0  0  0  0
   -2.5352    1.7172    0.6839 C   0  0  0  0  0  0  0  0  0  0  0  0
   -3.0461    2.0330   -0.5861 C   0  0  0  0  0  0  0  0  0  0  0  0
   -2.6472    3.1956   -1.2450 C   0  0  0  0  0  0  0  0  0  0  0  0
   -1.7547    4.0731   -0.6304 C   0  0  0  0  0  0  0  0  0  0  0  0
   -1.2652    3.7813    0.6492 C   0  0  0  0  0  0  0  0  0  0  0  0
   -1.6451    2.6132    1.3042 C   0  0  0  0  0  0  0  0  0  0  0  0
   -0.2810    4.7275    1.2941 C   0  0  0  0  0  0  0  0  0  0  0  0
   -0.1728    4.5169    2.6140 F   0  0  0  0  0  0  0  0  0  0  0  0
   -0.6492    6.0092    1.1132 F   0  0  0  0  0  0  0  0  0  0  0  0
    0.9443    4.5925    0.7602 F   0  0  0  0  0  0  0  0  0  0  0  0
   -1.5656   -0.3240    5.0265 C   0  0  0  0  0  0  0  0  0  0  0  0
   -2.1238   -1.7597    5.1599 C   0  0  0  0  0  0  0  0  0  0  0  0
   -3.0504   -1.8964    6.3423 C   0  0  0  0  0  0  0  0  0  0  0  0
   -2.5535   -2.2168    7.6144 C   0  0  0  0  0  0  0  0  0  0  0  0
   -3.4061   -2.2947    8.7182 C   0  0  0  0  0  0  0  0  0  0  0  0
   -4.7739   -2.0504    8.5668 C   0  0  0  0  0  0  0  0  0  0  0  0
   -5.2816   -1.7290    7.3048 C   0  0  0  0  0  0  0  0  0  0  0  0
   -4.4251   -1.6526    6.2039 C   0  0  0  0  0  0  0  0  0  0  0  0
    1.2393   -0.5404   -0.0553 H   0  0  0  0  0  0  0  0  0  0  0  0
   -4.0289    0.1699    1.0604 H   0  0  0  0  0  0  0  0  0  0  0  0
   -3.7535    1.3507   -1.0637 H   0  0  0  0  0  0  0  0  0  0  0  0
   -3.0404    3.4234   -2.2377 H   0  0  0  0  0  0  0  0  0  0  0  0
   -1.4456    4.9909   -1.1337 H   0  0  0  0  0  0  0  0  0  0  0  0
   -1.2542    2.4124    2.2997 H   0  0  0  0  0  0  0  0  0  0  0  0
   -2.4065    0.3856    4.9684 H   0  0  0  0  0  0  0  0  0  0  0  0
   -0.9751   -0.0653    5.9166 H   0  0  0  0  0  0  0  0  0  0  0  0
   -2.6559   -2.0158    4.2315 H   0  0  0  0  0  0  0  0  0  0  0  0
   -1.2752   -2.4551    5.2552 H   0  0  0  0  0  0  0  0  0  0  0  0
   -1.4843   -2.4115    7.7385 H   0  0  0  0  0  0  0  0  0  0  0  0
   -3.0012   -2.5503    9.7006 H   0  0  0  0  0  0  0  0  0  0  0  0
   -5.4425   -2.1135    9.4287 H   0  0  0  0  0  0  0  0  0  0  0  0
   -6.3505   -1.5407    7.1766 H   0  0  0  0  0  0  0  0  0  0  0  0
   -4.8265   -1.4041    5.2171 H   0  0  0  0  0  0  0  0  0  0  0  0
  1  2  1  0  0  0  0
  2  3  2  0  0  0  0
  2  6  1  0  0  0  0
  3  4  1  0  0  0  0
  4  5  2  0  0  0  0
  5 19  1  0  0  0  0
  6  5  1  0  0  0  0
  7  6  1  0  0  0  0
  8  7  2  0  0  0  0
  9 14  1  0  0  0  0
  9  8  1  0  0  0  0
 10  9  2  0  0  0  0
 11 12  2  0  0  0  0
 11 10  1  0  0  0  0
 12 13  1  0  0  0  0
 13 15  1  0  0  0  0
 13 14  2  0  0  0  0
 14 32  1  0  0  0  0
 15 16  1  0  0  0  0
 17 15  1  0  0  0  0
 18 15  1  0  0  0  0
 19 20  1  0  0  0  0
 19 34  1  0  0  0  0
 20 36  1  0  0  0  0
 20 21  1  0  0  0  0
 21 22  1  0  0  0  0
 22 37  1  0  0  0  0
 22 23  2  0  0  0  0
 23 38  1  0  0  0  0
 24 23  1  0  0  0  0
 24 39  1  0  0  0  0
 25 24  2  0  0  0  0
 26 21  2  0  0  0  0
 26 25  1  0  0  0  0
 27  1  1  0  0  0  0
 28  8  1  0  0  0  0
 29 10  1  0  0  0  0
 30 11  1  0  0  0  0
 31 12  1  0  0  0  0
 33 19  1  0  0  0  0
 35 20  1  0  0  0  0
 40 25  1  0  0  0  0
 41 26  1  0  0  0  0
M  END
