181602479.xyz
 OpenBabel08132112083D
CCCOc1c(Cl)cc(cc1Cl)/C=N\n1c(S)nnc1c1ccccc1OCC
 49 51  0  0  0  0  0  0  0  0999 V2000
    3.4684   -9.4683    1.9115 C   0  0  0  0  0  0  0  0  0  0  0  0
    2.8368   -8.4386    0.9773 C   0  0  0  0  0  0  0  0  0  0  0  0
    3.1434   -7.0162    1.3990 C   0  0  0  0  0  0  0  0  0  0  0  0
    2.5139   -6.1279    0.4618 O   0  0  0  0  0  0  0  0  0  0  0  0
    2.6229   -4.8117    0.7170 C   0  0  0  0  0  0  0  0  0  0  0  0
    1.6673   -4.1360    1.5042 C   0  0  0  0  0  0  0  0  0  0  0  0
    0.3754   -5.0642    2.2148 Cl  0  0  0  0  0  0  0  0  0  0  0  0
    1.7345   -2.7690    1.7395 C   0  0  0  0  0  0  0  0  0  0  0  0
    2.8095   -2.0225    1.2186 C   0  0  0  0  0  0  0  0  0  0  0  0
    3.7793   -2.6831    0.4433 C   0  0  0  0  0  0  0  0  0  0  0  0
    3.6853   -4.0503    0.1977 C   0  0  0  0  0  0  0  0  0  0  0  0
    4.9000   -4.8509   -0.7598 Cl  0  0  0  0  0  0  0  0  0  0  0  0
    3.0773   -0.6048    1.5018 C   0  0  0  0  0  0  0  0  0  0  0  0
    2.4275    0.3162    2.1147 N   0  0  0  0  0  0  0  0  0  0  0  0
    1.1394    0.0000    2.5414 N   0  0  0  0  0  0  0  0  0  0  0  0
   -0.0000   -0.0000    1.7584 C   0  0  0  0  0  0  0  0  0  0  0  0
    0.0000    0.0000    0.0000 S   0  0  0  0  0  0  0  0  0  0  0  0
   -1.0591   -0.0964    2.5295 N   0  0  0  0  0  0  0  0  0  0  0  0
   -0.6342   -0.1408    3.8247 N   0  0  0  0  0  0  0  0  0  0  0  0
    0.6849   -0.0511    3.8396 C   0  0  0  0  0  0  0  0  0  0  0  0
    1.5043    0.0099    5.0576 C   0  0  0  0  0  0  0  0  0  0  0  0
    1.1080    0.8794    6.0837 C   0  0  0  0  0  0  0  0  0  0  0  0
    1.8007    0.9326    7.2929 C   0  0  0  0  0  0  0  0  0  0  0  0
    2.9009    0.0958    7.4858 C   0  0  0  0  0  0  0  0  0  0  0  0
    3.3027   -0.7942    6.4868 C   0  0  0  0  0  0  0  0  0  0  0  0
    2.6089   -0.8469    5.2706 C   0  0  0  0  0  0  0  0  0  0  0  0
    2.9225   -1.6942    4.2561 O   0  0  0  0  0  0  0  0  0  0  0  0
    3.7418   -2.8376    4.4769 C   0  0  0  0  0  0  0  0  0  0  0  0
    2.9959   -3.9471    5.2003 C   0  0  0  0  0  0  0  0  0  0  0  0
    3.1008   -9.3548    2.9448 H   0  0  0  0  0  0  0  0  0  0  0  0
    4.5665   -9.3713    1.9360 H   0  0  0  0  0  0  0  0  0  0  0  0
    3.2331  -10.4928    1.5866 H   0  0  0  0  0  0  0  0  0  0  0  0
    3.1969   -8.5775   -0.0556 H   0  0  0  0  0  0  0  0  0  0  0  0
    1.7413   -8.5591    0.9484 H   0  0  0  0  0  0  0  0  0  0  0  0
    4.2319   -6.8270    1.4011 H   0  0  0  0  0  0  0  0  0  0  0  0
    2.7536   -6.8116    2.4120 H   0  0  0  0  0  0  0  0  0  0  0  0
    0.9712   -2.3196    2.3635 H   0  0  0  0  0  0  0  0  0  0  0  0
    4.6289   -2.1324    0.0370 H   0  0  0  0  0  0  0  0  0  0  0  0
    4.0575   -0.2582    1.1471 H   0  0  0  0  0  0  0  0  0  0  0  0
    0.8127    1.0768   -0.1331 H   0  0  0  0  0  0  0  0  0  0  0  0
    0.2350    1.5106    5.9109 H   0  0  0  0  0  0  0  0  0  0  0  0
    1.4814    1.6192    8.0791 H   0  0  0  0  0  0  0  0  0  0  0  0
    3.4548    0.1241    8.4273 H   0  0  0  0  0  0  0  0  0  0  0  0
    4.1516   -1.4530    6.6661 H   0  0  0  0  0  0  0  0  0  0  0  0
    4.6677   -2.5533    5.0049 H   0  0  0  0  0  0  0  0  0  0  0  0
    4.0334   -3.1639    3.4686 H   0  0  0  0  0  0  0  0  0  0  0  0
    2.1016   -4.2420    4.6312 H   0  0  0  0  0  0  0  0  0  0  0  0
    3.6456   -4.8302    5.3093 H   0  0  0  0  0  0  0  0  0  0  0  0
    2.6771   -3.6304    6.2046 H   0  0  0  0  0  0  0  0  0  0  0  0
  1 31  1  0  0  0  0
  1 30  1  0  0  0  0
  2  3  1  0  0  0  0
  2  1  1  0  0  0  0
  3 35  1  0  0  0  0
  3 36  1  0  0  0  0
  4  5  1  0  0  0  0
  4  3  1  0  0  0  0
  5  6  2  0  0  0  0
  6  8  1  0  0  0  0
  6  7  1  0  0  0  0
  8 37  1  0  0  0  0
  9 13  1  0  0  0  0
  9  8  2  0  0  0  0
 10  9  1  0  0  0  0
 11 10  2  0  0  0  0
 11  5  1  0  0  0  0
 12 11  1  0  0  0  0
 13 14  2  0  0  0  0
 14 15  1  0  0  0  0
 15 20  1  0  0  0  0
 16 18  2  0  0  0  0
 16 15  1  0  0  0  0
 17 16  1  0  0  0  0
 18 19  1  0  0  0  0
 19 20  2  0  0  0  0
 20 21  1  0  0  0  0
 21 26  2  0  0  0  0
 21 22  1  0  0  0  0
 22 23  2  0  0  0  0
 23 24  1  0  0  0  0
 23 42  1  0  0  0  0
 24 43  1  0  0  0  0
 25 44  1  0  0  0  0
 25 24  2  0  0  0  0
 26 25  1  0  0  0  0
 27 28  1  0  0  0  0
 27 26  1  0  0  0  0
 28 45  1  0  0  0  0
 28 29  1  0  0  0  0
 29 48  1  0  0  0  0
 29 49  1  0  0  0  0
 32  1  1  0  0  0  0
 33  2  1  0  0  0  0
 34  2  1  0  0  0  0
 38 10  1  0  0  0  0
 39 13  1  0  0  0  0
 40 17  1  0  0  0  0
 41 22  1  0  0  0  0
 46 28  1  0  0  0  0
 47 29  1  0  0  0  0
M  END
