181604291.xyz
 OpenBabel08132112083D
COc1cc(OC)c(cc1/C=N\n1c(S)nnc1c1ccco1)[N+](=O)[O-]
 39 41  0  0  0  0  0  0  0  0999 V2000
    0.0377    3.2092    3.8114 C   0  0  0  0  0  0  0  0  0  0  0  0
   -1.0303    2.6315    3.0689 O   0  0  0  0  0  0  0  0  0  0  0  0
   -1.2280    2.9675    1.7924 C   0  0  0  0  0  0  0  0  0  0  0  0
   -0.5535    4.0176    1.1583 C   0  0  0  0  0  0  0  0  0  0  0  0
   -0.8413    4.3899   -0.1598 C   0  0  0  0  0  0  0  0  0  0  0  0
   -0.1945    5.4512   -0.6814 O   0  0  0  0  0  0  0  0  0  0  0  0
    1.0254    5.1866   -1.3752 C   0  0  0  0  0  0  0  0  0  0  0  0
   -1.8655    3.6969   -0.8430 C   0  0  0  0  0  0  0  0  0  0  0  0
   -2.5491    2.6609   -0.2117 C   0  0  0  0  0  0  0  0  0  0  0  0
   -2.2084    2.2293    1.0705 C   0  0  0  0  0  0  0  0  0  0  0  0
   -2.8871    1.0222    1.5661 C   0  0  0  0  0  0  0  0  0  0  0  0
   -2.4617    0.0135    2.2422 N   0  0  0  0  0  0  0  0  0  0  0  0
   -1.1166   -0.0091    2.5743 N   0  0  0  0  0  0  0  0  0  0  0  0
   -0.0000   -0.0000    1.7593 C   0  0  0  0  0  0  0  0  0  0  0  0
    0.0000    0.0000    0.0000 S   0  0  0  0  0  0  0  0  0  0  0  0
    1.0835    0.0000    2.5017 N   0  0  0  0  0  0  0  0  0  0  0  0
    0.7032   -0.0013    3.8133 N   0  0  0  0  0  0  0  0  0  0  0  0
   -0.6155   -0.0395    3.8587 C   0  0  0  0  0  0  0  0  0  0  0  0
   -1.4329   -0.0190    5.0498 C   0  0  0  0  0  0  0  0  0  0  0  0
   -2.7764   -0.1959    5.2872 C   0  0  0  0  0  0  0  0  0  0  0  0
   -2.9518   -0.0560    6.7005 C   0  0  0  0  0  0  0  0  0  0  0  0
   -1.7101    0.2009    7.2131 C   0  0  0  0  0  0  0  0  0  0  0  0
   -0.7859    0.2279    6.2235 O   0  0  0  0  0  0  0  0  0  0  0  0
   -2.2726    4.0376   -2.2082 N   0  0  0  0  0  0  0  0  0  0  0  0
   -1.4655    4.6011   -2.9297 O   0  0  0  0  0  0  0  0  0  0  0  0
   -3.4030    3.7174   -2.5473 O   0  0  0  0  0  0  0  0  0  0  0  0
   -0.1236    4.2899    3.9559 H   0  0  0  0  0  0  0  0  0  0  0  0
    0.0440    2.6945    4.7784 H   0  0  0  0  0  0  0  0  0  0  0  0
    0.9999    3.0274    3.3082 H   0  0  0  0  0  0  0  0  0  0  0  0
    0.1972    4.6051    1.6832 H   0  0  0  0  0  0  0  0  0  0  0  0
    0.8399    4.5583   -2.2581 H   0  0  0  0  0  0  0  0  0  0  0  0
    1.7548    4.6971   -0.7068 H   0  0  0  0  0  0  0  0  0  0  0  0
    1.4170    6.1603   -1.6951 H   0  0  0  0  0  0  0  0  0  0  0  0
   -3.3374    2.1580   -0.7723 H   0  0  0  0  0  0  0  0  0  0  0  0
   -3.9398    0.9219    1.2675 H   0  0  0  0  0  0  0  0  0  0  0  0
   -1.0680   -0.8225   -0.1312 H   0  0  0  0  0  0  0  0  0  0  0  0
   -3.5294   -0.4090    4.5350 H   0  0  0  0  0  0  0  0  0  0  0  0
   -3.8811   -0.1366    7.2595 H   0  0  0  0  0  0  0  0  0  0  0  0
   -1.3376    0.3814    8.2176 H   0  0  0  0  0  0  0  0  0  0  0  0
  1 27  1  0  0  0  0
  1 28  1  0  0  0  0
  2  1  1  0  0  0  0
  3  2  1  0  0  0  0
  4 30  1  0  0  0  0
  4  3  1  0  0  0  0
  5  4  2  0  0  0  0
  6  5  1  0  0  0  0
  7 32  1  0  0  0  0
  7  6  1  0  0  0  0
  8  9  2  0  0  0  0
  8  5  1  0  0  0  0
  9 10  1  0  0  0  0
 10 11  1  0  0  0  0
 10  3  2  0  0  0  0
 11 12  2  0  0  0  0
 12 13  1  0  0  0  0
 13 18  1  0  0  0  0
 14 16  2  0  0  0  0
 14 13  1  0  0  0  0
 15 14  1  0  0  0  0
 16 17  1  0  0  0  0
 17 18  2  0  0  0  0
 18 19  1  0  0  0  0
 19 20  2  0  0  0  0
 19 23  1  0  0  0  0
 20 21  1  0  0  0  0
 21 22  2  0  0  0  0
 21 38  1  0  0  0  0
 22 39  1  0  0  0  0
 23 22  1  0  0  0  0
 24  8  1  0  0  0  0
 25 24  2  0  0  0  0
 26 24  2  0  0  0  0
 29  1  1  0  0  0  0
 31  7  1  0  0  0  0
 33  7  1  0  0  0  0
 34  9  1  0  0  0  0
 35 11  1  0  0  0  0
 36 15  1  0  0  0  0
 37 20  1  0  0  0  0
M  END
