181605785.xyz
 OpenBabel08132112083D
CCCOc1ccc(cc1[N+](=O)[O-])/C=N\n1c(S)nnc1COc1ccccc1
 48 50  0  0  0  0  0  0  0  0999 V2000
    0.5711    6.8820   -2.6754 C   0  0  0  0  0  0  0  0  0  0  0  0
   -0.9443    7.0775   -2.6632 C   0  0  0  0  0  0  0  0  0  0  0  0
   -1.7048    5.8067   -2.3287 C   0  0  0  0  0  0  0  0  0  0  0  0
   -1.2951    5.3934   -1.0240 O   0  0  0  0  0  0  0  0  0  0  0  0
   -1.6926    4.2333   -0.5130 C   0  0  0  0  0  0  0  0  0  0  0  0
   -2.6445    3.3884   -1.1154 C   0  0  0  0  0  0  0  0  0  0  0  0
   -3.0409    2.2111   -0.4924 C   0  0  0  0  0  0  0  0  0  0  0  0
   -2.5048    1.8098    0.7442 C   0  0  0  0  0  0  0  0  0  0  0  0
   -1.5736    2.6605    1.3631 C   0  0  0  0  0  0  0  0  0  0  0  0
   -1.1721    3.8328    0.7433 C   0  0  0  0  0  0  0  0  0  0  0  0
   -0.1634    4.6467    1.4455 N   0  0  0  0  0  0  0  0  0  0  0  0
   -0.2183    4.6515    2.6653 O   0  0  0  0  0  0  0  0  0  0  0  0
    0.6683    5.2303    0.7753 O   0  0  0  0  0  0  0  0  0  0  0  0
   -2.9936    0.5586    1.3419 C   0  0  0  0  0  0  0  0  0  0  0  0
   -2.4620   -0.2624    2.1745 N   0  0  0  0  0  0  0  0  0  0  0  0
   -1.1415   -0.0599    2.5365 N   0  0  0  0  0  0  0  0  0  0  0  0
   -0.0000    0.0000    1.7581 C   0  0  0  0  0  0  0  0  0  0  0  0
    0.0000    0.0000    0.0000 S   0  0  0  0  0  0  0  0  0  0  0  0
    1.0612   -0.0000    2.5317 N   0  0  0  0  0  0  0  0  0  0  0  0
    0.6361   -0.0769    3.8310 N   0  0  0  0  0  0  0  0  0  0  0  0
   -0.6724   -0.1350    3.8338 C   0  0  0  0  0  0  0  0  0  0  0  0
   -1.5500   -0.2250    5.0301 C   0  0  0  0  0  0  0  0  0  0  0  0
   -2.1676   -1.4973    5.0464 O   0  0  0  0  0  0  0  0  0  0  0  0
   -3.1130   -1.7553    5.9873 C   0  0  0  0  0  0  0  0  0  0  0  0
   -3.4368   -0.8880    7.0407 C   0  0  0  0  0  0  0  0  0  0  0  0
   -4.4270   -1.2589    7.9589 C   0  0  0  0  0  0  0  0  0  0  0  0
   -5.0929   -2.4782    7.8419 C   0  0  0  0  0  0  0  0  0  0  0  0
   -4.7605   -3.3401    6.7881 C   0  0  0  0  0  0  0  0  0  0  0  0
   -3.7806   -2.9856    5.8661 C   0  0  0  0  0  0  0  0  0  0  0  0
    0.9228    6.5243   -1.6966 H   0  0  0  0  0  0  0  0  0  0  0  0
    1.0885    7.8255   -2.9060 H   0  0  0  0  0  0  0  0  0  0  0  0
    0.8700    6.1406   -3.4353 H   0  0  0  0  0  0  0  0  0  0  0  0
   -1.2234    7.8523   -1.9295 H   0  0  0  0  0  0  0  0  0  0  0  0
   -1.3043    7.4295   -3.6451 H   0  0  0  0  0  0  0  0  0  0  0  0
   -1.4715    5.0048   -3.0524 H   0  0  0  0  0  0  0  0  0  0  0  0
   -2.7964    5.9750   -2.3370 H   0  0  0  0  0  0  0  0  0  0  0  0
   -3.0873    3.6647   -2.0708 H   0  0  0  0  0  0  0  0  0  0  0  0
   -3.7858    1.5785   -0.9814 H   0  0  0  0  0  0  0  0  0  0  0  0
   -1.1474    2.4396    2.3392 H   0  0  0  0  0  0  0  0  0  0  0  0
   -4.0088    0.2641    1.0431 H   0  0  0  0  0  0  0  0  0  0  0  0
    1.2659   -0.4750   -0.0517 H   0  0  0  0  0  0  0  0  0  0  0  0
   -2.3175    0.5705    5.0069 H   0  0  0  0  0  0  0  0  0  0  0  0
   -0.9120   -0.0711    5.9165 H   0  0  0  0  0  0  0  0  0  0  0  0
   -2.9249    0.0663    7.1626 H   0  0  0  0  0  0  0  0  0  0  0  0
   -4.6721   -0.5779    8.7777 H   0  0  0  0  0  0  0  0  0  0  0  0
   -5.8627   -2.7589    8.5637 H   0  0  0  0  0  0  0  0  0  0  0  0
   -5.2731   -4.2997    6.6837 H   0  0  0  0  0  0  0  0  0  0  0  0
   -3.5086   -3.6401    5.0362 H   0  0  0  0  0  0  0  0  0  0  0  0
  1  2  1  0  0  0  0
  1 30  1  0  0  0  0
  2  3  1  0  0  0  0
  2 33  1  0  0  0  0
  3  4  1  0  0  0  0
  4  5  1  0  0  0  0
  5 10  1  0  0  0  0
  6  5  2  0  0  0  0
  6  7  1  0  0  0  0
  7  8  2  0  0  0  0
  8 14  1  0  0  0  0
  8  9  1  0  0  0  0
  9 39  1  0  0  0  0
 10  9  2  0  0  0  0
 10 11  1  0  0  0  0
 11 12  2  0  0  0  0
 13 11  2  0  0  0  0
 14 15  2  0  0  0  0
 15 16  1  0  0  0  0
 16 21  1  0  0  0  0
 17 19  2  0  0  0  0
 17 16  1  0  0  0  0
 18 17  1  0  0  0  0
 19 20  1  0  0  0  0
 20 21  2  0  0  0  0
 21 22  1  0  0  0  0
 22 23  1  0  0  0  0
 22 43  1  0  0  0  0
 23 24  1  0  0  0  0
 24 25  1  0  0  0  0
 25 44  1  0  0  0  0
 25 26  2  0  0  0  0
 26 45  1  0  0  0  0
 27 26  1  0  0  0  0
 27 46  1  0  0  0  0
 28 27  2  0  0  0  0
 29 24  2  0  0  0  0
 29 28  1  0  0  0  0
 31  1  1  0  0  0  0
 32  1  1  0  0  0  0
 34  2  1  0  0  0  0
 35  3  1  0  0  0  0
 36  3  1  0  0  0  0
 37  6  1  0  0  0  0
 38  7  1  0  0  0  0
 40 14  1  0  0  0  0
 41 18  1  0  0  0  0
 42 22  1  0  0  0  0
 47 28  1  0  0  0  0
 48 29  1  0  0  0  0
M  END
