181600599.xyz
 OpenBabel08132112083D
CCCCc1nnc(n1/N=C\c1ccc(cc1)C(C)(C)C)S
 46 47  0  0  0  0  0  0  0  0999 V2000
   -3.0380   -3.5535    5.1073 C   0  0  0  0  0  0  0  0  0  0  0  0
   -2.7517   -2.1454    4.5891 C   0  0  0  0  0  0  0  0  0  0  0  0
   -1.8784   -1.3275    5.5418 C   0  0  0  0  0  0  0  0  0  0  0  0
   -1.5631    0.0968    5.0512 C   0  0  0  0  0  0  0  0  0  0  0  0
   -0.6980    0.1264    3.8345 C   0  0  0  0  0  0  0  0  0  0  0  0
    0.6136    0.0685    3.8317 N   0  0  0  0  0  0  0  0  0  0  0  0
    1.0565    0.0000    2.5334 N   0  0  0  0  0  0  0  0  0  0  0  0
   -0.0000   -0.0000    1.7576 C   0  0  0  0  0  0  0  0  0  0  0  0
   -1.1405    0.1108    2.5220 N   0  0  0  0  0  0  0  0  0  0  0  0
   -2.4332    0.0771    2.0119 N   0  0  0  0  0  0  0  0  0  0  0  0
   -3.1718    1.1086    2.2245 C   0  0  0  0  0  0  0  0  0  0  0  0
   -2.9027    2.4015    2.8677 C   0  0  0  0  0  0  0  0  0  0  0  0
   -4.0072    3.1147    3.3629 C   0  0  0  0  0  0  0  0  0  0  0  0
   -3.8499    4.3491    3.9921 C   0  0  0  0  0  0  0  0  0  0  0  0
   -2.5837    4.9370    4.1260 C   0  0  0  0  0  0  0  0  0  0  0  0
   -1.4854    4.2341    3.5923 C   0  0  0  0  0  0  0  0  0  0  0  0
   -1.6272    2.9947    2.9821 C   0  0  0  0  0  0  0  0  0  0  0  0
   -2.3611    6.2906    4.8119 C   0  0  0  0  0  0  0  0  0  0  0  0
   -3.6726    6.9042    5.3249 C   0  0  0  0  0  0  0  0  0  0  0  0
   -1.4109    6.0939    6.0128 C   0  0  0  0  0  0  0  0  0  0  0  0
   -1.7248    7.2712    3.8034 C   0  0  0  0  0  0  0  0  0  0  0  0
    0.0000    0.0000    0.0000 S   0  0  0  0  0  0  0  0  0  0  0  0
   -3.6699   -4.1219    4.4069 H   0  0  0  0  0  0  0  0  0  0  0  0
   -2.1036   -4.1210    5.2501 H   0  0  0  0  0  0  0  0  0  0  0  0
   -3.5576   -3.5252    6.0798 H   0  0  0  0  0  0  0  0  0  0  0  0
   -2.2658   -2.2079    3.6009 H   0  0  0  0  0  0  0  0  0  0  0  0
   -3.7029   -1.6099    4.4173 H   0  0  0  0  0  0  0  0  0  0  0  0
   -0.9246   -1.8540    5.7158 H   0  0  0  0  0  0  0  0  0  0  0  0
   -2.3784   -1.2537    6.5237 H   0  0  0  0  0  0  0  0  0  0  0  0
   -2.4969    0.6506    4.8735 H   0  0  0  0  0  0  0  0  0  0  0  0
   -1.0122    0.6395    5.8333 H   0  0  0  0  0  0  0  0  0  0  0  0
   -4.1974    0.9801    1.8518 H   0  0  0  0  0  0  0  0  0  0  0  0
   -5.0087    2.6875    3.2636 H   0  0  0  0  0  0  0  0  0  0  0  0
   -4.7356    4.8547    4.3742 H   0  0  0  0  0  0  0  0  0  0  0  0
   -0.4843    4.6633    3.6570 H   0  0  0  0  0  0  0  0  0  0  0  0
   -0.7432    2.5048    2.5790 H   0  0  0  0  0  0  0  0  0  0  0  0
   -4.3848    7.0921    4.5067 H   0  0  0  0  0  0  0  0  0  0  0  0
   -4.1635    6.2580    6.0688 H   0  0  0  0  0  0  0  0  0  0  0  0
   -3.4644    7.8695    5.8108 H   0  0  0  0  0  0  0  0  0  0  0  0
   -0.4337    5.6961    5.7019 H   0  0  0  0  0  0  0  0  0  0  0  0
   -1.8424    5.3936    6.7448 H   0  0  0  0  0  0  0  0  0  0  0  0
   -1.2356    7.0558    6.5205 H   0  0  0  0  0  0  0  0  0  0  0  0
   -0.7544    6.9081    3.4341 H   0  0  0  0  0  0  0  0  0  0  0  0
   -2.3824    7.4220    2.9332 H   0  0  0  0  0  0  0  0  0  0  0  0
   -1.5565    8.2501    4.2799 H   0  0  0  0  0  0  0  0  0  0  0  0
   -1.2831   -0.4262   -0.0889 H   0  0  0  0  0  0  0  0  0  0  0  0
  1 24  1  0  0  0  0
  1 25  1  0  0  0  0
  2  1  1  0  0  0  0
  2  3  1  0  0  0  0
  3 28  1  0  0  0  0
  3 29  1  0  0  0  0
  4  3  1  0  0  0  0
  4 31  1  0  0  0  0
  5  4  1  0  0  0  0
  6  5  2  0  0  0  0
  7  6  1  0  0  0  0
  8  9  1  0  0  0  0
  8  7  2  0  0  0  0
  9  5  1  0  0  0  0
 10 11  2  0  0  0  0
 10  9  1  0  0  0  0
 11 12  1  0  0  0  0
 12 17  2  0  0  0  0
 12 13  1  0  0  0  0
 13 14  2  0  0  0  0
 14 15  1  0  0  0  0
 14 34  1  0  0  0  0
 15 18  1  0  0  0  0
 16 35  1  0  0  0  0
 16 15  2  0  0  0  0
 17 16  1  0  0  0  0
 18 19  1  0  0  0  0
 18 20  1  0  0  0  0
 19 39  1  0  0  0  0
 19 38  1  0  0  0  0
 20 42  1  0  0  0  0
 20 41  1  0  0  0  0
 21 45  1  0  0  0  0
 21 18  1  0  0  0  0
 22  8  1  0  0  0  0
 23  1  1  0  0  0  0
 26  2  1  0  0  0  0
 27  2  1  0  0  0  0
 30  4  1  0  0  0  0
 32 11  1  0  0  0  0
 33 13  1  0  0  0  0
 36 17  1  0  0  0  0
 37 19  1  0  0  0  0
 40 20  1  0  0  0  0
 43 21  1  0  0  0  0
 44 21  1  0  0  0  0
 46 22  1  0  0  0  0
M  END
