181600833.xyz
 OpenBabel08132112083D
CCOc1c(cccc1OC)/C=N\n1c(S)nnc1CCc1ccccc1
 49 51  0  0  0  0  0  0  0  0999 V2000
   -4.3852    0.5153   -2.8433 C   0  0  0  0  0  0  0  0  0  0  0  0
   -3.2617   -0.3226   -2.2750 C   0  0  0  0  0  0  0  0  0  0  0  0
   -3.8022   -1.1176   -1.2074 O   0  0  0  0  0  0  0  0  0  0  0  0
   -2.9576   -1.9865   -0.5940 C   0  0  0  0  0  0  0  0  0  0  0  0
   -2.5134   -1.7093    0.7106 C   0  0  0  0  0  0  0  0  0  0  0  0
   -1.6924   -2.6392    1.3833 C   0  0  0  0  0  0  0  0  0  0  0  0
   -1.3095   -3.8083    0.7425 C   0  0  0  0  0  0  0  0  0  0  0  0
   -1.7252   -4.0784   -0.5685 C   0  0  0  0  0  0  0  0  0  0  0  0
   -2.5524   -3.1762   -1.2442 C   0  0  0  0  0  0  0  0  0  0  0  0
   -3.0196   -3.3473   -2.5040 O   0  0  0  0  0  0  0  0  0  0  0  0
   -2.6745   -4.5213   -3.2059 C   0  0  0  0  0  0  0  0  0  0  0  0
   -3.0097   -0.4743    1.3414 C   0  0  0  0  0  0  0  0  0  0  0  0
   -2.4623    0.3033    2.2054 N   0  0  0  0  0  0  0  0  0  0  0  0
   -1.1399    0.0807    2.5446 N   0  0  0  0  0  0  0  0  0  0  0  0
    0.0000    0.0000    1.7609 C   0  0  0  0  0  0  0  0  0  0  0  0
    0.0000    0.0000    0.0000 S   0  0  0  0  0  0  0  0  0  0  0  0
    1.0606   -0.0000    2.5308 N   0  0  0  0  0  0  0  0  0  0  0  0
    0.6390    0.0850    3.8360 N   0  0  0  0  0  0  0  0  0  0  0  0
   -0.6702    0.1578    3.8419 C   0  0  0  0  0  0  0  0  0  0  0  0
   -1.5723    0.2105    5.0232 C   0  0  0  0  0  0  0  0  0  0  0  0
   -2.2715   -1.1392    5.3037 C   0  0  0  0  0  0  0  0  0  0  0  0
   -3.2070   -1.0634    6.4845 C   0  0  0  0  0  0  0  0  0  0  0  0
   -2.7606   -1.3666    7.7789 C   0  0  0  0  0  0  0  0  0  0  0  0
   -3.6155   -1.2483    8.8775 C   0  0  0  0  0  0  0  0  0  0  0  0
   -4.9340   -0.8212    8.6974 C   0  0  0  0  0  0  0  0  0  0  0  0
   -5.3904   -0.5143    7.4123 C   0  0  0  0  0  0  0  0  0  0  0  0
   -4.5323   -0.6343    6.3170 C   0  0  0  0  0  0  0  0  0  0  0  0
   -4.0115    1.1445   -3.6658 H   0  0  0  0  0  0  0  0  0  0  0  0
   -4.8133    1.1719   -2.0703 H   0  0  0  0  0  0  0  0  0  0  0  0
   -5.1873   -0.1303   -3.2320 H   0  0  0  0  0  0  0  0  0  0  0  0
   -2.4517    0.3104   -1.8715 H   0  0  0  0  0  0  0  0  0  0  0  0
   -2.8332   -0.9862   -3.0429 H   0  0  0  0  0  0  0  0  0  0  0  0
   -1.3641   -2.4436    2.4031 H   0  0  0  0  0  0  0  0  0  0  0  0
   -0.6735   -4.5285    1.2607 H   0  0  0  0  0  0  0  0  0  0  0  0
   -1.4024   -4.9993   -1.0530 H   0  0  0  0  0  0  0  0  0  0  0  0
   -3.0350   -5.4263   -2.6857 H   0  0  0  0  0  0  0  0  0  0  0  0
   -1.5828   -4.6042   -3.3518 H   0  0  0  0  0  0  0  0  0  0  0  0
   -3.1632   -4.4534   -4.1863 H   0  0  0  0  0  0  0  0  0  0  0  0
   -4.0216   -0.1690    1.0522 H   0  0  0  0  0  0  0  0  0  0  0  0
    1.1867    0.6483   -0.0628 H   0  0  0  0  0  0  0  0  0  0  0  0
   -2.3388    0.9857    4.8636 H   0  0  0  0  0  0  0  0  0  0  0  0
   -0.9651    0.5047    5.8906 H   0  0  0  0  0  0  0  0  0  0  0  0
   -1.4992   -1.9055    5.4762 H   0  0  0  0  0  0  0  0  0  0  0  0
   -2.8345   -1.4430    4.4067 H   0  0  0  0  0  0  0  0  0  0  0  0
   -1.7301   -1.7025    7.9254 H   0  0  0  0  0  0  0  0  0  0  0  0
   -3.2511   -1.4929    9.8784 H   0  0  0  0  0  0  0  0  0  0  0  0
   -5.6045   -0.7301    9.5554 H   0  0  0  0  0  0  0  0  0  0  0  0
   -6.4208   -0.1822    7.2620 H   0  0  0  0  0  0  0  0  0  0  0  0
   -4.8938   -0.3938    5.3129 H   0  0  0  0  0  0  0  0  0  0  0  0
  1  2  1  0  0  0  0
  1 29  1  0  0  0  0
  2 31  1  0  0  0  0
  2  3  1  0  0  0  0
  3  4  1  0  0  0  0
  4  5  1  0  0  0  0
  5 12  1  0  0  0  0
  5  6  2  0  0  0  0
  6 33  1  0  0  0  0
  7 34  1  0  0  0  0
  7  6  1  0  0  0  0
  8  7  2  0  0  0  0
  9  4  2  0  0  0  0
  9  8  1  0  0  0  0
 10  9  1  0  0  0  0
 11 36  1  0  0  0  0
 11 10  1  0  0  0  0
 12 13  2  0  0  0  0
 13 14  1  0  0  0  0
 14 19  1  0  0  0  0
 15 17  2  0  0  0  0
 15 14  1  0  0  0  0
 16 15  1  0  0  0  0
 17 18  1  0  0  0  0
 18 19  2  0  0  0  0
 19 20  1  0  0  0  0
 20 21  1  0  0  0  0
 20 42  1  0  0  0  0
 21 43  1  0  0  0  0
 21 22  1  0  0  0  0
 22 23  1  0  0  0  0
 23 45  1  0  0  0  0
 23 24  2  0  0  0  0
 24 46  1  0  0  0  0
 25 24  1  0  0  0  0
 25 47  1  0  0  0  0
 26 25  2  0  0  0  0
 27 22  2  0  0  0  0
 27 26  1  0  0  0  0
 28  1  1  0  0  0  0
 30  1  1  0  0  0  0
 32  2  1  0  0  0  0
 35  8  1  0  0  0  0
 37 11  1  0  0  0  0
 38 11  1  0  0  0  0
 39 12  1  0  0  0  0
 40 16  1  0  0  0  0
 41 20  1  0  0  0  0
 44 21  1  0  0  0  0
 48 26  1  0  0  0  0
 49 27  1  0  0  0  0
M  END
