181602329.xyz
 OpenBabel08132112083D
CCCOc1cccc(c1)/C=N\n1c(S)nnc1c1ccccc1OCC
 49 51  0  0  0  0  0  0  0  0999 V2000
   -2.1371   -8.0773   -3.3477 C   0  0  0  0  0  0  0  0  0  0  0  0
   -2.6460   -6.7253   -2.8525 C   0  0  0  0  0  0  0  0  0  0  0  0
   -1.9786   -6.2971   -1.5572 C   0  0  0  0  0  0  0  0  0  0  0  0
   -2.5107   -5.0389   -1.1774 O   0  0  0  0  0  0  0  0  0  0  0  0
   -2.0641   -4.4377   -0.0506 C   0  0  0  0  0  0  0  0  0  0  0  0
   -1.0933   -4.9744    0.8087 C   0  0  0  0  0  0  0  0  0  0  0  0
   -0.7191   -4.2644    1.9554 C   0  0  0  0  0  0  0  0  0  0  0  0
   -1.2651   -3.0207    2.2543 C   0  0  0  0  0  0  0  0  0  0  0  0
   -2.2300   -2.4711    1.3836 C   0  0  0  0  0  0  0  0  0  0  0  0
   -2.6390   -3.1966    0.2567 C   0  0  0  0  0  0  0  0  0  0  0  0
   -2.8814   -1.1658    1.5864 C   0  0  0  0  0  0  0  0  0  0  0  0
   -2.4597   -0.0734    2.1164 N   0  0  0  0  0  0  0  0  0  0  0  0
   -1.1287   -0.0900    2.5419 N   0  0  0  0  0  0  0  0  0  0  0  0
   -0.0000   -0.0000    1.7581 C   0  0  0  0  0  0  0  0  0  0  0  0
    0.0000    0.0000    0.0000 S   0  0  0  0  0  0  0  0  0  0  0  0
    1.0660   -0.0000    2.5276 N   0  0  0  0  0  0  0  0  0  0  0  0
    0.6462   -0.0924    3.8229 N   0  0  0  0  0  0  0  0  0  0  0  0
   -0.6737   -0.1203    3.8375 C   0  0  0  0  0  0  0  0  0  0  0  0
   -1.5528   -0.2580    5.0090 C   0  0  0  0  0  0  0  0  0  0  0  0
   -2.5606    0.6801    5.2789 C   0  0  0  0  0  0  0  0  0  0  0  0
   -3.3873    0.5349    6.3928 C   0  0  0  0  0  0  0  0  0  0  0  0
   -3.2194   -0.5611    7.2454 C   0  0  0  0  0  0  0  0  0  0  0  0
   -2.2370   -1.5153    6.9762 C   0  0  0  0  0  0  0  0  0  0  0  0
   -1.4086   -1.3759    5.8577 C   0  0  0  0  0  0  0  0  0  0  0  0
   -0.5245   -2.3632    5.5355 O   0  0  0  0  0  0  0  0  0  0  0  0
    0.8086   -2.2532    6.0613 C   0  0  0  0  0  0  0  0  0  0  0  0
    1.6984   -3.1774    5.2598 C   0  0  0  0  0  0  0  0  0  0  0  0
   -2.3280   -8.8752   -2.6110 H   0  0  0  0  0  0  0  0  0  0  0  0
   -2.6331   -8.3673   -4.2861 H   0  0  0  0  0  0  0  0  0  0  0  0
   -1.0515   -8.0546   -3.5393 H   0  0  0  0  0  0  0  0  0  0  0  0
   -2.4683   -5.9437   -3.6099 H   0  0  0  0  0  0  0  0  0  0  0  0
   -3.7359   -6.7584   -2.6880 H   0  0  0  0  0  0  0  0  0  0  0  0
   -2.1621   -7.0433   -0.7603 H   0  0  0  0  0  0  0  0  0  0  0  0
   -0.8827   -6.2205   -1.6916 H   0  0  0  0  0  0  0  0  0  0  0  0
   -0.6351   -5.9409    0.6021 H   0  0  0  0  0  0  0  0  0  0  0  0
    0.0198   -4.6950    2.6347 H   0  0  0  0  0  0  0  0  0  0  0  0
   -0.9635   -2.5247    3.1734 H   0  0  0  0  0  0  0  0  0  0  0  0
   -3.3995   -2.8026   -0.4206 H   0  0  0  0  0  0  0  0  0  0  0  0
   -3.9052   -1.0830    1.1957 H   0  0  0  0  0  0  0  0  0  0  0  0
   -0.9914    0.9145   -0.1292 H   0  0  0  0  0  0  0  0  0  0  0  0
   -2.6885    1.5275    4.6028 H   0  0  0  0  0  0  0  0  0  0  0  0
   -4.1632    1.2761    6.5957 H   0  0  0  0  0  0  0  0  0  0  0  0
   -3.8658   -0.6802    8.1183 H   0  0  0  0  0  0  0  0  0  0  0  0
   -2.1100   -2.3951    7.6100 H   0  0  0  0  0  0  0  0  0  0  0  0
    0.7946   -2.5286    7.1328 H   0  0  0  0  0  0  0  0  0  0  0  0
    1.1504   -1.2123    5.9601 H   0  0  0  0  0  0  0  0  0  0  0  0
    1.3139   -4.2095    5.2853 H   0  0  0  0  0  0  0  0  0  0  0  0
    2.7195   -3.1754    5.6714 H   0  0  0  0  0  0  0  0  0  0  0  0
    1.7460   -2.8373    4.2145 H   0  0  0  0  0  0  0  0  0  0  0  0
  1  2  1  0  0  0  0
  1 28  1  0  0  0  0
  2 32  1  0  0  0  0
  2  3  1  0  0  0  0
  3  4  1  0  0  0  0
  3 33  1  0  0  0  0
  4  5  1  0  0  0  0
  5 10  2  0  0  0  0
  5  6  1  0  0  0  0
  6  7  2  0  0  0  0
  7  8  1  0  0  0  0
  7 36  1  0  0  0  0
  8 37  1  0  0  0  0
  9 11  1  0  0  0  0
  9  8  2  0  0  0  0
 10  9  1  0  0  0  0
 11 12  2  0  0  0  0
 12 13  1  0  0  0  0
 13 18  1  0  0  0  0
 14 16  2  0  0  0  0
 14 13  1  0  0  0  0
 15 14  1  0  0  0  0
 16 17  1  0  0  0  0
 17 18  2  0  0  0  0
 18 19  1  0  0  0  0
 19 20  2  0  0  0  0
 19 24  1  0  0  0  0
 20 21  1  0  0  0  0
 21 42  1  0  0  0  0
 21 22  2  0  0  0  0
 22 43  1  0  0  0  0
 23 22  1  0  0  0  0
 23 44  1  0  0  0  0
 24 23  2  0  0  0  0
 25 24  1  0  0  0  0
 25 26  1  0  0  0  0
 26 45  1  0  0  0  0
 27 47  1  0  0  0  0
 27 48  1  0  0  0  0
 27 26  1  0  0  0  0
 29  1  1  0  0  0  0
 30  1  1  0  0  0  0
 31  2  1  0  0  0  0
 34  3  1  0  0  0  0
 35  6  1  0  0  0  0
 38 10  1  0  0  0  0
 39 11  1  0  0  0  0
 40 15  1  0  0  0  0
 41 20  1  0  0  0  0
 46 26  1  0  0  0  0
 49 27  1  0  0  0  0
M  END
