181611066.xyz
 OpenBabel08132112083D
Fc1ccc(cc1)/C=N\NC(=O)c1ccc2c(c1)[nH]c(n2)S
 33 35  0  0  1  0  0  0  0  0999 V2000
   -2.4750    0.3882   15.0447 F   0  0  0  0  0  0  0  0  0  0  0  0
   -1.8641    0.5732   13.8691 C   0  0  0  0  0  0  0  0  0  0  0  0
   -1.1454    1.7479   13.6533 C   0  0  0  0  0  0  0  0  0  0  0  0
   -0.5120    1.9315   12.4268 C   0  0  0  0  0  0  0  0  0  0  0  0
   -0.5995    0.9672   11.4034 C   0  0  0  0  0  0  0  0  0  0  0  0
   -1.3183   -0.2173   11.6667 C   0  0  0  0  0  0  0  0  0  0  0  0
   -1.9506   -0.4171   12.8937 C   0  0  0  0  0  0  0  0  0  0  0  0
    0.1159    1.2268   10.1379 C   0  0  0  0  0  0  0  0  0  0  0  0
   -0.1900    0.8978    8.9325 N   0  0  0  0  0  0  0  0  0  0  0  0
   -1.3336    0.2432    8.6683 N   0  0  0  0  0  0  0  0  0  0  0  0
   -1.8194   -0.0503    7.3955 C   0  0  0  0  0  0  0  0  0  0  0  0
   -2.9949   -0.3740    7.3165 O   0  0  0  0  0  0  0  0  0  0  0  0
   -0.9324    0.0058    6.1939 C   0  0  1  0  0  0  0  0  0  0  0  0
    0.4848    0.0018    6.2228 C   0  0  0  0  0  0  0  0  0  0  0  0
    1.2383   -0.0065    5.0526 C   0  0  0  0  0  0  0  0  0  0  0  0
    0.5668   -0.0004    3.8225 C   0  0  0  0  0  0  0  0  0  0  0  0
   -0.8550   -0.0002    3.8064 C   0  0  0  0  0  0  0  0  0  0  0  0
   -1.6171   -0.0071    4.9657 C   0  0  0  0  0  0  0  0  0  0  0  0
   -1.1866    0.0003    2.4576 N   0  0  0  0  0  0  0  0  0  0  0  0
   -0.0000   -0.0000    1.7592 C   0  0  0  0  0  0  0  0  0  0  0  0
    1.0600    0.0000    2.5291 N   0  0  0  0  0  0  0  0  0  0  0  0
    0.0000    0.0000    0.0000 S   0  0  0  0  0  0  0  0  0  0  0  0
   -1.0895    2.4955   14.4463 H   0  0  0  0  0  0  0  0  0  0  0  0
    0.0599    2.8457   12.2502 H   0  0  0  0  0  0  0  0  0  0  0  0
   -1.3564   -1.0151   10.9235 H   0  0  0  0  0  0  0  0  0  0  0  0
   -2.5025   -1.3338   13.1078 H   0  0  0  0  0  0  0  0  0  0  0  0
    1.0387    1.8142   10.2190 H   0  0  0  0  0  0  0  0  0  0  0  0
   -2.0635    0.1623    9.3804 H   0  0  0  0  0  0  0  0  0  0  0  0
    0.9925    0.0101    7.1833 H   0  0  0  0  0  0  0  0  0  0  0  0
    2.3289   -0.0174    5.0817 H   0  0  0  0  0  0  0  0  0  0  0  0
   -2.7071   -0.0307    4.9658 H   0  0  0  0  0  0  0  0  0  0  0  0
   -2.1186   -0.0015    2.0637 H   0  0  0  0  0  0  0  0  0  0  0  0
    1.3493   -0.0025   -0.0649 H   0  0  0  0  0  0  0  0  0  0  0  0
  2  1  1  0  0  0  0
  3  2  1  0  0  0  0
  3 23  1  0  0  0  0
  4  3  2  0  0  0  0
  5  6  2  0  0  0  0
  5  4  1  0  0  0  0
  6  7  1  0  0  0  0
  7 26  1  0  0  0  0
  7  2  2  0  0  0  0
  8 27  1  0  0  0  0
  8  5  1  0  0  0  0
  9  8  2  0  0  0  0
 10  9  1  0  0  0  0
 10 28  1  0  0  0  0
 11 10  1  0  0  0  0
 12 11  2  0  0  0  0
 13 14  1  0  0  0  0
 13 11  1  1  0  0  0
 14 29  1  0  0  0  0
 15 30  1  0  0  0  0
 15 14  2  0  0  0  0
 16 15  1  0  0  0  0
 17 16  1  0  0  0  0
 17 18  2  0  0  0  0
 18 31  1  0  0  0  0
 18 13  1  0  0  0  0
 19 17  1  0  0  0  0
 20 19  1  0  0  0  0
 20 21  2  0  0  0  0
 21 16  2  0  0  0  0
 22 20  1  0  0  0  0
 24  4  1  0  0  0  0
 25  6  1  0  0  0  0
 32 19  1  0  0  0  0
 33 22  1  0  0  0  0
M  RAD  1  13   2
M  END
