181604339.xyz
 OpenBabel08132112083D
OC(=O)c1ccccc1/C=N\n1c(S)nnc1c1ccco1
 32 34  0  0  0  0  0  0  0  0999 V2000
   -2.5422   -2.7901   -2.3003 O   0  0  0  0  0  0  0  0  0  0  0  0
   -2.6642   -2.0629   -1.1758 C   0  0  0  0  0  0  0  0  0  0  0  0
   -3.0947   -0.9304   -1.1840 O   0  0  0  0  0  0  0  0  0  0  0  0
   -2.2226   -2.7867    0.0457 C   0  0  0  0  0  0  0  0  0  0  0  0
   -1.6709   -4.0721   -0.0407 C   0  0  0  0  0  0  0  0  0  0  0  0
   -1.2166   -4.7245    1.1044 C   0  0  0  0  0  0  0  0  0  0  0  0
   -1.3160   -4.0955    2.3479 C   0  0  0  0  0  0  0  0  0  0  0  0
   -1.8646   -2.8166    2.4450 C   0  0  0  0  0  0  0  0  0  0  0  0
   -2.3199   -2.1456    1.3003 C   0  0  0  0  0  0  0  0  0  0  0  0
   -2.9444   -0.8082    1.4662 C   0  0  0  0  0  0  0  0  0  0  0  0
   -2.4656    0.2039    2.0924 N   0  0  0  0  0  0  0  0  0  0  0  0
   -1.1424    0.0774    2.5195 N   0  0  0  0  0  0  0  0  0  0  0  0
   -0.0000   -0.0000    1.7573 C   0  0  0  0  0  0  0  0  0  0  0  0
    0.0000    0.0000    0.0000 S   0  0  0  0  0  0  0  0  0  0  0  0
    1.0569   -0.0000    2.5391 N   0  0  0  0  0  0  0  0  0  0  0  0
    0.6263    0.0823    3.8323 N   0  0  0  0  0  0  0  0  0  0  0  0
   -0.6906    0.1530    3.8255 C   0  0  0  0  0  0  0  0  0  0  0  0
   -1.5634    0.2232    4.9759 C   0  0  0  0  0  0  0  0  0  0  0  0
   -2.9238    0.3820    5.1258 C   0  0  0  0  0  0  0  0  0  0  0  0
   -3.1696    0.3814    6.5360 C   0  0  0  0  0  0  0  0  0  0  0  0
   -1.9491    0.2233    7.1326 C   0  0  0  0  0  0  0  0  0  0  0  0
   -0.9746    0.1250    6.1983 O   0  0  0  0  0  0  0  0  0  0  0  0
   -2.8442   -2.2248   -3.0312 H   0  0  0  0  0  0  0  0  0  0  0  0
   -1.5931   -4.5474   -1.0183 H   0  0  0  0  0  0  0  0  0  0  0  0
   -0.7817   -5.7231    1.0265 H   0  0  0  0  0  0  0  0  0  0  0  0
   -0.9632   -4.5997    3.2500 H   0  0  0  0  0  0  0  0  0  0  0  0
   -1.9529   -2.3370    3.4208 H   0  0  0  0  0  0  0  0  0  0  0  0
   -3.9558   -0.6606    1.0747 H   0  0  0  0  0  0  0  0  0  0  0  0
    1.3517    0.0384   -0.0302 H   0  0  0  0  0  0  0  0  0  0  0  0
   -3.6417    0.5072    4.3215 H   0  0  0  0  0  0  0  0  0  0  0  0
   -4.1289    0.4890    7.0368 H   0  0  0  0  0  0  0  0  0  0  0  0
   -1.6242    0.1631    8.1676 H   0  0  0  0  0  0  0  0  0  0  0  0
  1  2  1  0  0  0  0
  2  4  1  0  0  0  0
  3  2  2  0  0  0  0
  4  9  1  0  0  0  0
  5  4  2  0  0  0  0
  5  6  1  0  0  0  0
  6  7  2  0  0  0  0
  7  8  1  0  0  0  0
  7 26  1  0  0  0  0
  8 27  1  0  0  0  0
  9 10  1  0  0  0  0
  9  8  2  0  0  0  0
 10 11  2  0  0  0  0
 11 12  1  0  0  0  0
 12 17  1  0  0  0  0
 13 12  1  0  0  0  0
 13 15  2  0  0  0  0
 14 13  1  0  0  0  0
 15 16  1  0  0  0  0
 17 16  2  0  0  0  0
 17 18  1  0  0  0  0
 18 19  2  0  0  0  0
 18 22  1  0  0  0  0
 19 20  1  0  0  0  0
 20 31  1  0  0  0  0
 20 21  2  0  0  0  0
 21 32  1  0  0  0  0
 22 21  1  0  0  0  0
 23  1  1  0  0  0  0
 24  5  1  0  0  0  0
 25  6  1  0  0  0  0
 28 10  1  0  0  0  0
 29 14  1  0  0  0  0
 30 19  1  0  0  0  0
M  END
