181605908.xyz
 OpenBabel08132112083D
CCOc1cc(/C=N\n2c(S)nnc2COc2ccccc2)ccc1O
 44 46  0  0  0  0  0  0  0  0999 V2000
    1.9363   -4.9084    3.8975 C   0  0  0  0  0  0  0  0  0  0  0  0
    0.7535   -4.0658    3.4717 C   0  0  0  0  0  0  0  0  0  0  0  0
   -0.4191   -4.6224    4.0665 O   0  0  0  0  0  0  0  0  0  0  0  0
   -1.5869   -3.9702    3.9259 C   0  0  0  0  0  0  0  0  0  0  0  0
   -1.7768   -2.8479    3.1280 C   0  0  0  0  0  0  0  0  0  0  0  0
   -3.0304   -2.1949    3.0685 C   0  0  0  0  0  0  0  0  0  0  0  0
   -3.2388   -0.9725    2.2903 C   0  0  0  0  0  0  0  0  0  0  0  0
   -2.4301   -0.0199    1.9784 N   0  0  0  0  0  0  0  0  0  0  0  0
   -1.1468   -0.0716    2.5153 N   0  0  0  0  0  0  0  0  0  0  0  0
    0.0000    0.0000    1.7556 C   0  0  0  0  0  0  0  0  0  0  0  0
    0.0000    0.0000    0.0000 S   0  0  0  0  0  0  0  0  0  0  0  0
    1.0588    0.0000    2.5311 N   0  0  0  0  0  0  0  0  0  0  0  0
    0.6124   -0.0190    3.8300 N   0  0  0  0  0  0  0  0  0  0  0  0
   -0.6977   -0.0549    3.8248 C   0  0  0  0  0  0  0  0  0  0  0  0
   -1.5487   -0.1383    5.0467 C   0  0  0  0  0  0  0  0  0  0  0  0
   -2.7091    0.6544    4.8653 O   0  0  0  0  0  0  0  0  0  0  0  0
   -3.8912    0.2398    5.3916 C   0  0  0  0  0  0  0  0  0  0  0  0
   -5.0509    0.7151    4.7597 C   0  0  0  0  0  0  0  0  0  0  0  0
   -6.3049    0.3114    5.2132 C   0  0  0  0  0  0  0  0  0  0  0  0
   -6.4197   -0.5672    6.2984 C   0  0  0  0  0  0  0  0  0  0  0  0
   -5.2627   -1.0198    6.9348 C   0  0  0  0  0  0  0  0  0  0  0  0
   -3.9975   -0.6187    6.4937 C   0  0  0  0  0  0  0  0  0  0  0  0
   -4.1118   -2.7274    3.7809 C   0  0  0  0  0  0  0  0  0  0  0  0
   -3.9332   -3.8593    4.5780 C   0  0  0  0  0  0  0  0  0  0  0  0
   -2.6887   -4.4849    4.6681 C   0  0  0  0  0  0  0  0  0  0  0  0
   -2.4566   -5.5725    5.4293 O   0  0  0  0  0  0  0  0  0  0  0  0
    2.0425   -4.9002    4.9926 H   0  0  0  0  0  0  0  0  0  0  0  0
    2.8604   -4.5083    3.4537 H   0  0  0  0  0  0  0  0  0  0  0  0
    1.8107   -5.9514    3.5696 H   0  0  0  0  0  0  0  0  0  0  0  0
    0.8735   -3.0161    3.7950 H   0  0  0  0  0  0  0  0  0  0  0  0
    0.6459   -4.0638    2.3713 H   0  0  0  0  0  0  0  0  0  0  0  0
   -0.9465   -2.4731    2.5385 H   0  0  0  0  0  0  0  0  0  0  0  0
   -4.2544   -0.8158    1.9044 H   0  0  0  0  0  0  0  0  0  0  0  0
   -1.3193    0.3027   -0.0743 H   0  0  0  0  0  0  0  0  0  0  0  0
   -0.9426    0.2131    5.8980 H   0  0  0  0  0  0  0  0  0  0  0  0
   -1.8315   -1.1871    5.2341 H   0  0  0  0  0  0  0  0  0  0  0  0
   -4.9357    1.3879    3.9082 H   0  0  0  0  0  0  0  0  0  0  0  0
   -7.2025    0.6822    4.7120 H   0  0  0  0  0  0  0  0  0  0  0  0
   -7.4036   -0.8846    6.6498 H   0  0  0  0  0  0  0  0  0  0  0  0
   -5.3379   -1.6920    7.7932 H   0  0  0  0  0  0  0  0  0  0  0  0
   -3.1055   -0.9772    7.0080 H   0  0  0  0  0  0  0  0  0  0  0  0
   -5.0842   -2.2327    3.7536 H   0  0  0  0  0  0  0  0  0  0  0  0
   -4.7713   -4.2569    5.1573 H   0  0  0  0  0  0  0  0  0  0  0  0
   -3.2741   -5.8326    5.8748 H   0  0  0  0  0  0  0  0  0  0  0  0
  1 27  1  0  0  0  0
  2 30  1  0  0  0  0
  2  1  1  0  0  0  0
  2  3  1  0  0  0  0
  4  3  1  0  0  0  0
  4 25  2  0  0  0  0
  5  4  1  0  0  0  0
  6  5  2  0  0  0  0
  6 23  1  0  0  0  0
  7  6  1  0  0  0  0
  8  7  2  0  0  0  0
  8  9  1  0  0  0  0
  9 14  1  0  0  0  0
 10  9  1  0  0  0  0
 10 12  2  0  0  0  0
 11 10  1  0  0  0  0
 12 13  1  0  0  0  0
 14 13  2  0  0  0  0
 14 15  1  0  0  0  0
 15 36  1  0  0  0  0
 15 35  1  0  0  0  0
 16 15  1  0  0  0  0
 16 17  1  0  0  0  0
 17 22  2  0  0  0  0
 18 19  2  0  0  0  0
 18 17  1  0  0  0  0
 19 20  1  0  0  0  0
 20 39  1  0  0  0  0
 20 21  2  0  0  0  0
 21 40  1  0  0  0  0
 22 21  1  0  0  0  0
 22 41  1  0  0  0  0
 23 24  2  0  0  0  0
 24 25  1  0  0  0  0
 24 43  1  0  0  0  0
 25 26  1  0  0  0  0
 26 44  1  0  0  0  0
 28  1  1  0  0  0  0
 29  1  1  0  0  0  0
 31  2  1  0  0  0  0
 32  5  1  0  0  0  0
 33  7  1  0  0  0  0
 34 11  1  0  0  0  0
 37 18  1  0  0  0  0
 38 19  1  0  0  0  0
 42 23  1  0  0  0  0
M  END
