181606390.xyz
 OpenBabel08132112083D
COc1c(Br)cc(cc1OC)/C=N\n1c(S)nnc1C(F)(F)F
 33 34  0  0  0  0  0  0  0  0999 V2000
    1.0339    7.1308    3.5119 C   0  0  0  0  0  0  0  0  0  0  0  0
    1.9258    6.5512    2.5610 O   0  0  0  0  0  0  0  0  0  0  0  0
    2.1029    5.2315    2.4456 C   0  0  0  0  0  0  0  0  0  0  0  0
    3.3785    4.7724    2.0639 C   0  0  0  0  0  0  0  0  0  0  0  0
    4.7629    6.0414    1.7893 Br  0  0  0  0  0  0  0  0  0  0  0  0
    3.6491    3.4186    1.8929 C   0  0  0  0  0  0  0  0  0  0  0  0
    2.6452    2.4576    2.1082 C   0  0  0  0  0  0  0  0  0  0  0  0
    1.3554    2.9054    2.4718 C   0  0  0  0  0  0  0  0  0  0  0  0
    1.0765    4.2582    2.6282 C   0  0  0  0  0  0  0  0  0  0  0  0
   -0.1535    4.7275    2.9339 O   0  0  0  0  0  0  0  0  0  0  0  0
   -1.2045    3.8022    3.1728 C   0  0  0  0  0  0  0  0  0  0  0  0
    3.0476    1.0674    1.9172 C   0  0  0  0  0  0  0  0  0  0  0  0
    2.4525   -0.0703    2.0695 N   0  0  0  0  0  0  0  0  0  0  0  0
    1.1324   -0.0000    2.5256 N   0  0  0  0  0  0  0  0  0  0  0  0
   -0.0000    0.0000    1.7525 C   0  0  0  0  0  0  0  0  0  0  0  0
    0.0000    0.0000    0.0000 S   0  0  0  0  0  0  0  0  0  0  0  0
   -1.0674    0.0926    2.5237 N   0  0  0  0  0  0  0  0  0  0  0  0
   -0.6405    0.1249    3.8207 N   0  0  0  0  0  0  0  0  0  0  0  0
    0.6694    0.0509    3.8168 C   0  0  0  0  0  0  0  0  0  0  0  0
    1.5608    0.0495    5.0228 C   0  0  0  0  0  0  0  0  0  0  0  0
    2.3140   -1.0590    5.0720 F   0  0  0  0  0  0  0  0  0  0  0  0
    0.8438    0.1262    6.1390 F   0  0  0  0  0  0  0  0  0  0  0  0
    2.4091    1.1003    4.9968 F   0  0  0  0  0  0  0  0  0  0  0  0
    1.0744    6.5937    4.4717 H   0  0  0  0  0  0  0  0  0  0  0  0
    0.0003    7.1342    3.1429 H   0  0  0  0  0  0  0  0  0  0  0  0
    1.3877    8.1607    3.6538 H   0  0  0  0  0  0  0  0  0  0  0  0
    4.6549    3.1101    1.6060 H   0  0  0  0  0  0  0  0  0  0  0  0
    0.5406    2.2120    2.6158 H   0  0  0  0  0  0  0  0  0  0  0  0
   -0.9679    3.1235    4.0088 H   0  0  0  0  0  0  0  0  0  0  0  0
   -1.4217    3.1943    2.2793 H   0  0  0  0  0  0  0  0  0  0  0  0
   -2.0865    4.4024    3.4269 H   0  0  0  0  0  0  0  0  0  0  0  0
    4.0804    0.9430    1.5660 H   0  0  0  0  0  0  0  0  0  0  0  0
    1.2583   -0.4925   -0.0927 H   0  0  0  0  0  0  0  0  0  0  0  0
  1 26  1  0  0  0  0
  1 24  1  0  0  0  0
  2  1  1  0  0  0  0
  3  2  1  0  0  0  0
  3  9  2  0  0  0  0
  4  3  1  0  0  0  0
  5  4  1  0  0  0  0
  6  4  2  0  0  0  0
  6  7  1  0  0  0  0
  7  8  2  0  0  0  0
  8 28  1  0  0  0  0
  8  9  1  0  0  0  0
  9 10  1  0  0  0  0
 10 11  1  0  0  0  0
 11 31  1  0  0  0  0
 11 29  1  0  0  0  0
 12 13  2  0  0  0  0
 12  7  1  0  0  0  0
 13 14  1  0  0  0  0
 14 19  1  0  0  0  0
 15 17  2  0  0  0  0
 15 14  1  0  0  0  0
 16 15  1  0  0  0  0
 17 18  1  0  0  0  0
 19 18  2  0  0  0  0
 19 20  1  0  0  0  0
 20 21  1  0  0  0  0
 20 22  1  0  0  0  0
 23 20  1  0  0  0  0
 25  1  1  0  0  0  0
 27  6  1  0  0  0  0
 30 11  1  0  0  0  0
 32 12  1  0  0  0  0
 33 16  1  0  0  0  0
M  END
