181605761.xyz
 OpenBabel08132112083D
Sc1nnc(n1/N=C\c1c(F)cccc1Cl)COc1ccccc1
 36 38  0  0  0  0  0  0  0  0999 V2000
    0.0000    0.0000    0.0000 S   0  0  0  0  0  0  0  0  0  0  0  0
    0.0000    0.0000    1.7586 C   0  0  0  0  0  0  0  0  0  0  0  0
   -1.0582   -0.1182    2.5261 N   0  0  0  0  0  0  0  0  0  0  0  0
   -0.6335   -0.1940    3.8263 N   0  0  0  0  0  0  0  0  0  0  0  0
    0.6739   -0.1420    3.8353 C   0  0  0  0  0  0  0  0  0  0  0  0
    1.1416   -0.0000    2.5443 N   0  0  0  0  0  0  0  0  0  0  0  0
    2.4762   -0.0205    2.2117 N   0  0  0  0  0  0  0  0  0  0  0  0
    2.9107    0.8412    1.3686 C   0  0  0  0  0  0  0  0  0  0  0  0
    2.2269    2.0034    0.7652 C   0  0  0  0  0  0  0  0  0  0  0  0
    1.4620    2.9011    1.5290 C   0  0  0  0  0  0  0  0  0  0  0  0
    1.3379    2.6855    2.8436 F   0  0  0  0  0  0  0  0  0  0  0  0
    0.8448    4.0176    0.9800 C   0  0  0  0  0  0  0  0  0  0  0  0
    1.0063    4.2727   -0.3823 C   0  0  0  0  0  0  0  0  0  0  0  0
    1.7788    3.4259   -1.1798 C   0  0  0  0  0  0  0  0  0  0  0  0
    2.3828    2.3109   -0.6017 C   0  0  0  0  0  0  0  0  0  0  0  0
    3.3109    1.2330   -1.6084 Cl  0  0  0  0  0  0  0  0  0  0  0  0
    1.5501   -0.1431    5.0351 C   0  0  0  0  0  0  0  0  0  0  0  0
    2.3228   -1.3276    5.0405 O   0  0  0  0  0  0  0  0  0  0  0  0
    3.2981   -1.4693    5.9750 C   0  0  0  0  0  0  0  0  0  0  0  0
    3.5178   -0.5722    7.0303 C   0  0  0  0  0  0  0  0  0  0  0  0
    4.5516   -0.8203    7.9418 C   0  0  0  0  0  0  0  0  0  0  0  0
    5.3632   -1.9470    7.8166 C   0  0  0  0  0  0  0  0  0  0  0  0
    5.1345   -2.8399    6.7609 C   0  0  0  0  0  0  0  0  0  0  0  0
    4.1129   -2.6067    5.8455 C   0  0  0  0  0  0  0  0  0  0  0  0
   -1.1710   -0.6762   -0.0547 H   0  0  0  0  0  0  0  0  0  0  0  0
    3.9587    0.6953    1.0803 H   0  0  0  0  0  0  0  0  0  0  0  0
    0.2573    4.6689    1.6280 H   0  0  0  0  0  0  0  0  0  0  0  0
    0.5259    5.1452   -0.8295 H   0  0  0  0  0  0  0  0  0  0  0  0
    1.9095    3.6159   -2.2451 H   0  0  0  0  0  0  0  0  0  0  0  0
    0.8951   -0.0810    5.9203 H   0  0  0  0  0  0  0  0  0  0  0  0
    2.2084    0.7447    5.0199 H   0  0  0  0  0  0  0  0  0  0  0  0
    2.8926    0.3111    7.1576 H   0  0  0  0  0  0  0  0  0  0  0  0
    4.7151   -0.1167    8.7620 H   0  0  0  0  0  0  0  0  0  0  0  0
    6.1661   -2.1322    8.5330 H   0  0  0  0  0  0  0  0  0  0  0  0
    5.7619   -3.7277    6.6497 H   0  0  0  0  0  0  0  0  0  0  0  0
    3.9200   -3.2869    5.0141 H   0  0  0  0  0  0  0  0  0  0  0  0
  1  2  1  0  0  0  0
  2  3  2  0  0  0  0
  2  6  1  0  0  0  0
  3  4  1  0  0  0  0
  4  5  2  0  0  0  0
  5 17  1  0  0  0  0
  6  5  1  0  0  0  0
  7  6  1  0  0  0  0
  8  7  2  0  0  0  0
  9  8  1  0  0  0  0
  9 10  2  0  0  0  0
 10 11  1  0  0  0  0
 12 10  1  0  0  0  0
 12 27  1  0  0  0  0
 13 12  2  0  0  0  0
 14 15  2  0  0  0  0
 14 13  1  0  0  0  0
 15  9  1  0  0  0  0
 16 15  1  0  0  0  0
 17 18  1  0  0  0  0
 17 30  1  0  0  0  0
 18 19  1  0  0  0  0
 19 20  1  0  0  0  0
 20 32  1  0  0  0  0
 20 21  2  0  0  0  0
 21 33  1  0  0  0  0
 22 21  1  0  0  0  0
 22 34  1  0  0  0  0
 23 22  2  0  0  0  0
 24 19  2  0  0  0  0
 24 23  1  0  0  0  0
 25  1  1  0  0  0  0
 26  8  1  0  0  0  0
 28 13  1  0  0  0  0
 29 14  1  0  0  0  0
 31 17  1  0  0  0  0
 35 23  1  0  0  0  0
 36 24  1  0  0  0  0
M  END
