182572269.xyz
 OpenBabel08132112083D
SCC(C(=O)O)NC(=O)c1ccn2c(c1)nc(c2)c1ccccc1
 39 41  0  0  1  0  0  0  0  0999 V2000
    0.0000    0.0000    0.0000 S   0  0  0  0  0  0  0  0  0  0  0  0
    0.0000   -0.0000    1.8300 C   0  0  0  0  0  0  0  0  0  0  0  0
    1.4075   -0.0000    2.4558 C   0  0  1  0  0  0  0  0  0  0  0  0
    2.2070   -1.2298    2.0602 C   0  0  0  0  0  0  0  0  0  0  0  0
    3.3079   -1.2038    1.5695 O   0  0  0  0  0  0  0  0  0  0  0  0
    1.5363   -2.3652    2.3088 O   0  0  0  0  0  0  0  0  0  0  0  0
    2.1798    1.1615    2.1005 N   0  0  0  0  0  0  0  0  0  0  0  0
    1.8932    2.3855    2.6223 C   0  0  0  0  0  0  0  0  0  0  0  0
    0.9917    2.5486    3.4370 O   0  0  0  0  0  0  0  0  0  0  0  0
    2.7403    3.5259    2.1459 C   0  0  0  0  0  0  0  0  0  0  0  0
    2.7252    4.7175    2.9350 C   0  0  0  0  0  0  0  0  0  0  0  0
    3.4571    5.8087    2.5639 C   0  0  0  0  0  0  0  0  0  0  0  0
    4.2063    5.7601    1.4127 N   0  0  0  0  0  0  0  0  0  0  0  0
    4.2361    4.6143    0.5884 C   0  0  0  0  0  0  0  0  0  0  0  0
    3.4810    3.4872    0.9795 C   0  0  0  0  0  0  0  0  0  0  0  0
    5.0134    4.8181   -0.4669 N   0  0  0  0  0  0  0  0  0  0  0  0
    5.5017    6.0872   -0.3486 C   0  0  0  0  0  0  0  0  0  0  0  0
    5.0132    6.6933    0.8121 C   0  0  0  0  0  0  0  0  0  0  0  0
    6.4119    6.6592   -1.3506 C   0  0  0  0  0  0  0  0  0  0  0  0
    6.9224    7.9634   -1.2272 C   0  0  0  0  0  0  0  0  0  0  0  0
    7.7846    8.4833   -2.1923 C   0  0  0  0  0  0  0  0  0  0  0  0
    8.1518    7.7090   -3.2975 C   0  0  0  0  0  0  0  0  0  0  0  0
    7.6493    6.4106   -3.4287 C   0  0  0  0  0  0  0  0  0  0  0  0
    6.7870    5.8887   -2.4650 C   0  0  0  0  0  0  0  0  0  0  0  0
    0.2318   -1.3250   -0.1505 H   0  0  0  0  0  0  0  0  0  0  0  0
   -0.4978    0.9282    2.1403 H   0  0  0  0  0  0  0  0  0  0  0  0
   -0.5873   -0.8461    2.2100 H   0  0  0  0  0  0  0  0  0  0  0  0
    1.2645   -0.0271    3.5527 H   0  0  0  0  0  0  0  0  0  0  0  0
    2.1074   -3.1028    2.0323 H   0  0  0  0  0  0  0  0  0  0  0  0
    3.0078    0.9992    1.5385 H   0  0  0  0  0  0  0  0  0  0  0  0
    2.1119    4.7380    3.8352 H   0  0  0  0  0  0  0  0  0  0  0  0
    3.4882    6.7417    3.1273 H   0  0  0  0  0  0  0  0  0  0  0  0
    3.4936    2.6261    0.3109 H   0  0  0  0  0  0  0  0  0  0  0  0
    5.1653    7.6780    1.2430 H   0  0  0  0  0  0  0  0  0  0  0  0
    6.6454    8.5803   -0.3694 H   0  0  0  0  0  0  0  0  0  0  0  0
    8.1727    9.4987   -2.0818 H   0  0  0  0  0  0  0  0  0  0  0  0
    8.8273    8.1170   -4.0532 H   0  0  0  0  0  0  0  0  0  0  0  0
    7.9320    5.7999   -4.2897 H   0  0  0  0  0  0  0  0  0  0  0  0
    6.3859    4.8782   -2.5519 H   0  0  0  0  0  0  0  0  0  0  0  0
  1  2  1  0  0  0  0
  2 26  1  0  0  0  0
  2 27  1  0  0  0  0
  2  3  1  0  0  0  0
  3 28  1  1  0  0  0
  4  6  1  0  0  0  0
  4  3  1  0  0  0  0
  5  4  2  0  0  0  0
  7  3  1  0  0  0  0
  7  8  1  0  0  0  0
  8  9  2  0  0  0  0
 10  8  1  0  0  0  0
 10 11  1  0  0  0  0
 11 31  1  0  0  0  0
 12 11  2  0  0  0  0
 12 32  1  0  0  0  0
 13 12  1  0  0  0  0
 14 15  1  0  0  0  0
 14 13  1  0  0  0  0
 15 10  2  0  0  0  0
 16 17  2  0  0  0  0
 16 14  2  0  0  0  0
 17 18  1  0  0  0  0
 18 34  1  0  0  0  0
 18 13  1  0  0  0  0
 19 20  1  0  0  0  0
 19 17  1  0  0  0  0
 20 35  1  0  0  0  0
 21 36  1  0  0  0  0
 21 20  2  0  0  0  0
 22 21  1  0  0  0  0
 23 22  2  0  0  0  0
 23 24  1  0  0  0  0
 24 19  2  0  0  0  0
 25  1  1  0  0  0  0
 29  6  1  0  0  0  0
 30  7  1  0  0  0  0
 33 15  1  0  0  0  0
 37 22  1  0  0  0  0
 38 23  1  0  0  0  0
 39 24  1  0  0  0  0
M  RAD  1  18   2
M  END
