182567349.xyz
 OpenBabel08132112083D
SCC(C(=O)O)NC(=O)c1ccc(cc1)c1cc(=O)c2c(o1)c(C)cc(c2)C
 47 49  0  0  1  0  0  0  0  0999 V2000
    0.0000    0.0000    0.0000 S   0  0  0  0  0  0  0  0  0  0  0  0
    0.0000   -0.0000    1.8273 C   0  0  0  0  0  0  0  0  0  0  0  0
    1.3895   -0.0000    2.5029 C   0  0  1  0  0  0  0  0  0  0  0  0
    2.2167    1.2018    2.0747 C   0  0  0  0  0  0  0  0  0  0  0  0
    2.1376    2.2817    2.6115 O   0  0  0  0  0  0  0  0  0  0  0  0
    3.0254    0.9383    1.0472 O   0  0  0  0  0  0  0  0  0  0  0  0
    1.2444    0.0630    3.9411 N   0  0  0  0  0  0  0  0  0  0  0  0
    1.0058   -1.0591    4.6789 C   0  0  0  0  0  0  0  0  0  0  0  0
    0.9412   -2.1672    4.1637 O   0  0  0  0  0  0  0  0  0  0  0  0
    0.8408   -0.8639    6.1597 C   0  0  0  0  0  0  0  0  0  0  0  0
    0.5921    0.3763    6.7637 C   0  0  0  0  0  0  0  0  0  0  0  0
    0.4406    0.4760    8.1450 C   0  0  0  0  0  0  0  0  0  0  0  0
    0.5352   -0.6653    8.9610 C   0  0  0  0  0  0  0  0  0  0  0  0
    0.7733   -1.9103    8.3487 C   0  0  0  0  0  0  0  0  0  0  0  0
    0.9171   -2.0066    6.9705 C   0  0  0  0  0  0  0  0  0  0  0  0
    0.3799   -0.5456   10.4233 C   0  0  0  0  0  0  0  0  0  0  0  0
    0.4790   -1.5574   11.3270 C   0  0  0  0  0  0  0  0  0  0  0  0
    0.3109   -1.3465   12.7631 C   0  0  0  0  0  0  0  0  0  0  0  0
    0.3967   -2.2458   13.5895 O   0  0  0  0  0  0  0  0  0  0  0  0
    0.0263    0.0619   13.1299 C   0  0  0  0  0  0  0  0  0  0  0  0
   -0.0562    1.0370   12.1304 C   0  0  0  0  0  0  0  0  0  0  0  0
    0.1188    0.7266   10.8107 O   0  0  0  0  0  0  0  0  0  0  0  0
   -0.3239    2.3880   12.4272 C   0  0  0  0  0  0  0  0  0  0  0  0
   -0.4040    3.4043   11.3213 C   0  0  0  0  0  0  0  0  0  0  0  0
   -0.5046    2.7163   13.7682 C   0  0  0  0  0  0  0  0  0  0  0  0
   -0.4293    1.7626   14.8080 C   0  0  0  0  0  0  0  0  0  0  0  0
   -0.1630    0.4404   14.4693 C   0  0  0  0  0  0  0  0  0  0  0  0
   -0.6356    2.1880   16.2392 C   0  0  0  0  0  0  0  0  0  0  0  0
    0.6398   -1.1829   -0.1518 H   0  0  0  0  0  0  0  0  0  0  0  0
   -0.5393    0.9142    2.1178 H   0  0  0  0  0  0  0  0  0  0  0  0
   -0.5567   -0.8656    2.2116 H   0  0  0  0  0  0  0  0  0  0  0  0
    1.9112   -0.9305    2.2377 H   0  0  0  0  0  0  0  0  0  0  0  0
    3.4625    1.7718    0.7974 H   0  0  0  0  0  0  0  0  0  0  0  0
    1.3363    0.9803    4.3627 H   0  0  0  0  0  0  0  0  0  0  0  0
    0.4881    1.2826    6.1633 H   0  0  0  0  0  0  0  0  0  0  0  0
    0.2426    1.4446    8.6016 H   0  0  0  0  0  0  0  0  0  0  0  0
    0.8423   -2.8149    8.9531 H   0  0  0  0  0  0  0  0  0  0  0  0
    1.0899   -2.9689    6.4869 H   0  0  0  0  0  0  0  0  0  0  0  0
    0.6923   -2.5739   11.0026 H   0  0  0  0  0  0  0  0  0  0  0  0
   -1.1899    3.1407   10.5948 H   0  0  0  0  0  0  0  0  0  0  0  0
   -0.6233    4.4044   11.7199 H   0  0  0  0  0  0  0  0  0  0  0  0
    0.5425    3.4558   10.7589 H   0  0  0  0  0  0  0  0  0  0  0  0
   -0.7137    3.7598   14.0222 H   0  0  0  0  0  0  0  0  0  0  0  0
   -0.0919   -0.3449   15.2245 H   0  0  0  0  0  0  0  0  0  0  0  0
    0.1051    2.9474   16.5403 H   0  0  0  0  0  0  0  0  0  0  0  0
   -1.6327    2.6365   16.3822 H   0  0  0  0  0  0  0  0  0  0  0  0
   -0.5458    1.3358   16.9274 H   0  0  0  0  0  0  0  0  0  0  0  0
  1  2  1  0  0  0  0
  2 30  1  0  0  0  0
  2 31  1  0  0  0  0
  2  3  1  0  0  0  0
  3 32  1  6  0  0  0
  3  7  1  0  0  0  0
  4  3  1  0  0  0  0
  4  5  2  0  0  0  0
  6  4  1  0  0  0  0
  7 34  1  0  0  0  0
  7  8  1  0  0  0  0
  8 10  1  0  0  0  0
  9  8  2  0  0  0  0
 10 11  2  0  0  0  0
 10 15  1  0  0  0  0
 11 12  1  0  0  0  0
 12 36  1  0  0  0  0
 12 13  2  0  0  0  0
 13 16  1  0  0  0  0
 14 37  1  0  0  0  0
 14 13  1  0  0  0  0
 15 14  2  0  0  0  0
 16 22  1  0  0  0  0
 16 17  2  0  0  0  0
 17 18  1  0  0  0  0
 18 20  1  0  0  0  0
 18 19  2  0  0  0  0
 20 27  2  0  0  0  0
 21 23  2  0  0  0  0
 21 20  1  0  0  0  0
 22 21  1  0  0  0  0
 23 25  1  0  0  0  0
 24 41  1  0  0  0  0
 24 23  1  0  0  0  0
 25 43  1  0  0  0  0
 25 26  2  0  0  0  0
 26 28  1  0  0  0  0
 27 26  1  0  0  0  0
 27 44  1  0  0  0  0
 28 46  1  0  0  0  0
 28 45  1  0  0  0  0
 28 47  1  0  0  0  0
 29  1  1  0  0  0  0
 33  6  1  0  0  0  0
 35 11  1  0  0  0  0
 38 15  1  0  0  0  0
 39 17  1  0  0  0  0
 40 24  1  0  0  0  0
 42 24  1  0  0  0  0
M  END
