182568412.xyz
 OpenBabel08132112083D
SCC(C(=O)O)NC(=O)C1CN(C(=O)C1)CCCN(C)C
 44 44  0  0  1  0  0  0  0  0999 V2000
    0.0000    0.0000    0.0000 S   0  0  0  0  0  0  0  0  0  0  0  0
    0.0000   -0.0000    1.8280 C   0  0  0  0  0  0  0  0  0  0  0  0
    1.3928   -0.0000    2.4925 C   0  0  2  0  0  0  0  0  0  0  0  0
    2.2048   -1.2088    2.0522 C   0  0  0  0  0  0  0  0  0  0  0  0
    2.0643   -2.3059    2.5376 O   0  0  0  0  0  0  0  0  0  0  0  0
    3.0723   -0.9299    1.0773 O   0  0  0  0  0  0  0  0  0  0  0  0
    1.2663   -0.0728    3.9328 N   0  0  0  0  0  0  0  0  0  0  0  0
    0.9369    1.0173    4.6836 C   0  0  0  0  0  0  0  0  0  0  0  0
    0.7640    2.1219    4.1944 O   0  0  0  0  0  0  0  0  0  0  0  0
    0.8327    0.7666    6.1891 C   0  0  1  0  0  0  0  0  0  0  0  0
    0.0589   -0.5250    6.5362 C   0  0  0  0  0  0  0  0  0  0  0  0
    1.1018   -1.5391    6.5657 N   0  0  0  0  0  0  0  0  0  0  0  0
    2.3501   -1.0175    6.8374 C   0  0  0  0  0  0  0  0  0  0  0  0
    3.3491   -1.6668    7.0621 O   0  0  0  0  0  0  0  0  0  0  0  0
    2.2193    0.5040    6.8129 C   0  0  0  0  0  0  0  0  0  0  0  0
    0.8279   -2.9576    6.6907 C   0  0  0  0  0  0  0  0  0  0  0  0
    0.3362   -3.3719    8.0784 C   0  0  0  0  0  0  0  0  0  0  0  0
    0.0927   -4.8889    8.1608 C   0  0  0  0  0  0  0  0  0  0  0  0
   -0.3651   -5.4110    9.4356 N   0  0  0  0  0  0  0  0  0  0  0  0
    0.5980   -5.3180   10.5106 C   0  0  0  0  0  0  0  0  0  0  0  0
   -1.6953   -4.9975    9.8207 C   0  0  0  0  0  0  0  0  0  0  0  0
    0.6241    1.1914   -0.1513 H   0  0  0  0  0  0  0  0  0  0  0  0
   -0.5577    0.8640    2.2136 H   0  0  0  0  0  0  0  0  0  0  0  0
   -0.5327   -0.9183    2.1177 H   0  0  0  0  0  0  0  0  0  0  0  0
    1.9168    0.9276    2.2217 H   0  0  0  0  0  0  0  0  0  0  0  0
    3.5010   -1.7660    0.8215 H   0  0  0  0  0  0  0  0  0  0  0  0
    1.3487   -0.9930    4.3589 H   0  0  0  0  0  0  0  0  0  0  0  0
    0.3482    1.6593    6.6018 H   0  0  0  0  0  0  0  0  0  0  0  0
   -0.4459   -0.4272    7.5157 H   0  0  0  0  0  0  0  0  0  0  0  0
   -0.7125   -0.7753    5.7900 H   0  0  0  0  0  0  0  0  0  0  0  0
    2.2669    0.8644    7.8541 H   0  0  0  0  0  0  0  0  0  0  0  0
    3.0587    0.9601    6.2705 H   0  0  0  0  0  0  0  0  0  0  0  0
    0.0923   -3.2424    5.9182 H   0  0  0  0  0  0  0  0  0  0  0  0
    1.7700   -3.4765    6.4586 H   0  0  0  0  0  0  0  0  0  0  0  0
   -0.5930   -2.8300    8.3245 H   0  0  0  0  0  0  0  0  0  0  0  0
    1.0929   -3.0686    8.8203 H   0  0  0  0  0  0  0  0  0  0  0  0
   -0.6474   -5.1740    7.3910 H   0  0  0  0  0  0  0  0  0  0  0  0
    1.0292   -5.4108    7.8948 H   0  0  0  0  0  0  0  0  0  0  0  0
    0.2638   -5.9277   11.3661 H   0  0  0  0  0  0  0  0  0  0  0  0
    0.7625   -4.2835   10.8900 H   0  0  0  0  0  0  0  0  0  0  0  0
    1.5728   -5.7095   10.1787 H   0  0  0  0  0  0  0  0  0  0  0  0
   -2.3972   -5.1581    8.9864 H   0  0  0  0  0  0  0  0  0  0  0  0
   -1.7742   -3.9287   10.1271 H   0  0  0  0  0  0  0  0  0  0  0  0
   -2.0439   -5.6034   10.6733 H   0  0  0  0  0  0  0  0  0  0  0  0
  1  2  1  0  0  0  0
  2 24  1  0  0  0  0
  2 23  1  0  0  0  0
  2  3  1  0  0  0  0
  3 25  1  6  0  0  0
  3  7  1  0  0  0  0
  4  3  1  0  0  0  0
  4  5  2  0  0  0  0
  6  4  1  0  0  0  0
  7 27  1  0  0  0  0
  7  8  1  0  0  0  0
  8 10  1  0  0  0  0
  9  8  2  0  0  0  0
 10 11  1  0  0  0  0
 10 28  1  1  0  0  0
 10 15  1  0  0  0  0
 11 12  1  0  0  0  0
 11 29  1  0  0  0  0
 12 16  1  0  0  0  0
 12 13  1  0  0  0  0
 13 14  2  0  0  0  0
 15 13  1  0  0  0  0
 15 31  1  0  0  0  0
 16 17  1  0  0  0  0
 17 18  1  0  0  0  0
 17 35  1  0  0  0  0
 17 36  1  0  0  0  0
 18 19  1  0  0  0  0
 19 21  1  0  0  0  0
 19 20  1  0  0  0  0
 20 40  1  0  0  0  0
 20 39  1  0  0  0  0
 21 43  1  0  0  0  0
 21 44  1  0  0  0  0
 22  1  1  0  0  0  0
 26  6  1  0  0  0  0
 30 11  1  0  0  0  0
 32 15  1  0  0  0  0
 33 16  1  0  0  0  0
 34 16  1  0  0  0  0
 37 18  1  0  0  0  0
 38 18  1  0  0  0  0
 41 20  1  0  0  0  0
 42 21  1  0  0  0  0
M  END
