186788275.xyz
 OpenBabel08132112083D
O=C(CN1C(=O)c2c(C1=O)cccc2)Nc1ccccc1S
 34 36  0  0  0  0  0  0  0  0999 V2000
    4.0366   -0.1629    3.4275 O   0  0  0  0  0  0  0  0  0  0  0  0
    3.7036   -0.0910    2.2621 C   0  0  0  0  0  0  0  0  0  0  0  0
    4.7462   -0.0456    1.1291 C   0  0  0  0  0  0  0  0  0  0  0  0
    6.0595   -0.2833    1.6459 N   0  0  0  0  0  0  0  0  0  0  0  0
    6.5241   -1.5671    1.9742 C   0  0  0  0  0  0  0  0  0  0  0  0
    5.9634   -2.5982    1.6898 O   0  0  0  0  0  0  0  0  0  0  0  0
    7.8097   -1.3473    2.7029 C   0  0  0  0  0  0  0  0  0  0  0  0
    8.0201    0.0314    2.8160 C   0  0  0  0  0  0  0  0  0  0  0  0
    6.8764    0.7368    2.1621 C   0  0  0  0  0  0  0  0  0  0  0  0
    6.6596    1.9195    2.0564 O   0  0  0  0  0  0  0  0  0  0  0  0
    9.1411    0.5440    3.4553 C   0  0  0  0  0  0  0  0  0  0  0  0
   10.0584   -0.3742    3.9876 C   0  0  0  0  0  0  0  0  0  0  0  0
    9.8475   -1.7559    3.8744 C   0  0  0  0  0  0  0  0  0  0  0  0
    8.7125   -2.2640    3.2251 C   0  0  0  0  0  0  0  0  0  0  0  0
    2.4171   -0.0314    1.7994 N   0  0  0  0  0  0  0  0  0  0  0  0
    1.2192    0.0000    2.5226 C   0  0  0  0  0  0  0  0  0  0  0  0
    1.1785    0.0319    3.9277 C   0  0  0  0  0  0  0  0  0  0  0  0
   -0.0482    0.0794    4.5887 C   0  0  0  0  0  0  0  0  0  0  0  0
   -1.2507    0.0966    3.8779 C   0  0  0  0  0  0  0  0  0  0  0  0
   -1.2184    0.0578    2.4837 C   0  0  0  0  0  0  0  0  0  0  0  0
   -0.0000    0.0000    1.8002 C   0  0  0  0  0  0  0  0  0  0  0  0
    0.0000    0.0000    0.0000 S   0  0  0  0  0  0  0  0  0  0  0  0
    4.5102   -0.8050    0.3683 H   0  0  0  0  0  0  0  0  0  0  0  0
    4.7305    0.9521    0.6637 H   0  0  0  0  0  0  0  0  0  0  0  0
    9.2922    1.6220    3.5383 H   0  0  0  0  0  0  0  0  0  0  0  0
   10.9512   -0.0094    4.5007 H   0  0  0  0  0  0  0  0  0  0  0  0
   10.5794   -2.4457    4.3010 H   0  0  0  0  0  0  0  0  0  0  0  0
    8.5355   -3.3372    3.1319 H   0  0  0  0  0  0  0  0  0  0  0  0
    2.2784    0.0204    0.7908 H   0  0  0  0  0  0  0  0  0  0  0  0
    2.1167    0.0176    4.4768 H   0  0  0  0  0  0  0  0  0  0  0  0
   -0.0586    0.1055    5.6810 H   0  0  0  0  0  0  0  0  0  0  0  0
   -2.2074    0.1380    4.4026 H   0  0  0  0  0  0  0  0  0  0  0  0
   -2.1434    0.0676    1.9042 H   0  0  0  0  0  0  0  0  0  0  0  0
    0.1280   -1.3401   -0.1732 H   0  0  0  0  0  0  0  0  0  0  0  0
  2  1  2  0  0  0  0
  3  4  1  0  0  0  0
  3  2  1  0  0  0  0
  4  5  1  0  0  0  0
  4  9  1  0  0  0  0
  5  7  1  0  0  0  0
  6  5  2  0  0  0  0
  7  8  2  0  0  0  0
  7 14  1  0  0  0  0
  8 11  1  0  0  0  0
  9  8  1  0  0  0  0
 10  9  2  0  0  0  0
 11 25  1  0  0  0  0
 11 12  2  0  0  0  0
 12 26  1  0  0  0  0
 13 12  1  0  0  0  0
 13 27  1  0  0  0  0
 14 13  2  0  0  0  0
 15  2  1  0  0  0  0
 15 16  1  0  0  0  0
 16 17  2  0  0  0  0
 17 30  1  0  0  0  0
 17 18  1  0  0  0  0
 18 31  1  0  0  0  0
 19 32  1  0  0  0  0
 19 18  2  0  0  0  0
 20 19  1  0  0  0  0
 21 20  2  0  0  0  0
 21 16  1  0  0  0  0
 22 21  1  0  0  0  0
 23  3  1  0  0  0  0
 24  3  1  0  0  0  0
 28 14  1  0  0  0  0
 29 15  1  0  0  0  0
 33 20  1  0  0  0  0
 34 22  1  0  0  0  0
M  END
