186784161.xyz
 OpenBabel08132112083D
SCCNC(=O)Cc1ccccc1
 26 26  0  0  0  0  0  0  0  0999 V2000
    0.0000    0.0000    0.0000 S   0  0  0  0  0  0  0  0  0  0  0  0
    0.0000   -0.0000    1.8390 C   0  0  0  0  0  0  0  0  0  0  0  0
    1.3999    0.0000    2.4547 C   0  0  0  0  0  0  0  0  0  0  0  0
    2.1996   -1.1116    1.9975 N   0  0  0  0  0  0  0  0  0  0  0  0
    2.4601   -2.1943    2.7864 C   0  0  0  0  0  0  0  0  0  0  0  0
    2.1857   -2.2455    3.9728 O   0  0  0  0  0  0  0  0  0  0  0  0
    3.1827   -3.3553    2.0838 C   0  0  0  0  0  0  0  0  0  0  0  0
    3.0309   -3.3952    0.5852 C   0  0  0  0  0  0  0  0  0  0  0  0
    1.8357   -3.8524    0.0069 C   0  0  0  0  0  0  0  0  0  0  0  0
    1.6515   -3.8209   -1.3758 C   0  0  0  0  0  0  0  0  0  0  0  0
    2.6631   -3.3310   -2.2076 C   0  0  0  0  0  0  0  0  0  0  0  0
    3.8578   -2.8748   -1.6461 C   0  0  0  0  0  0  0  0  0  0  0  0
    4.0379   -2.9062   -0.2601 C   0  0  0  0  0  0  0  0  0  0  0  0
    0.4988    1.2500   -0.1518 H   0  0  0  0  0  0  0  0  0  0  0  0
   -0.5937    0.8495    2.2087 H   0  0  0  0  0  0  0  0  0  0  0  0
   -0.5309   -0.9239    2.1147 H   0  0  0  0  0  0  0  0  0  0  0  0
    1.3234   -0.0858    3.5488 H   0  0  0  0  0  0  0  0  0  0  0  0
    1.9081    0.9531    2.2237 H   0  0  0  0  0  0  0  0  0  0  0  0
    2.3216   -1.2059    0.9935 H   0  0  0  0  0  0  0  0  0  0  0  0
    2.7966   -4.2703    2.5563 H   0  0  0  0  0  0  0  0  0  0  0  0
    4.2453   -3.2813    2.3674 H   0  0  0  0  0  0  0  0  0  0  0  0
    1.0386   -4.2297    0.6535 H   0  0  0  0  0  0  0  0  0  0  0  0
    0.7133   -4.1778   -1.8072 H   0  0  0  0  0  0  0  0  0  0  0  0
    2.5194   -3.3049   -3.2903 H   0  0  0  0  0  0  0  0  0  0  0  0
    4.6548   -2.4929   -2.2888 H   0  0  0  0  0  0  0  0  0  0  0  0
    4.9734   -2.5444    0.1753 H   0  0  0  0  0  0  0  0  0  0  0  0
  1  2  1  0  0  0  0
  2 16  1  0  0  0  0
  2 15  1  0  0  0  0
  2  3  1  0  0  0  0
  3 17  1  0  0  0  0
  4  3  1  0  0  0  0
  4  5  1  0  0  0  0
  5  6  2  0  0  0  0
  7 21  1  0  0  0  0
  7 20  1  0  0  0  0
  7  5  1  0  0  0  0
  8  7  1  0  0  0  0
  9  8  1  0  0  0  0
  9 22  1  0  0  0  0
 10  9  2  0  0  0  0
 11 12  2  0  0  0  0
 11 10  1  0  0  0  0
 12 13  1  0  0  0  0
 13 26  1  0  0  0  0
 13  8  2  0  0  0  0
 14  1  1  0  0  0  0
 18  3  1  0  0  0  0
 19  4  1  0  0  0  0
 23 10  1  0  0  0  0
 24 11  1  0  0  0  0
 25 12  1  0  0  0  0
M  END
