186893677.xyz
 OpenBabel08132112083D
SCCNC(=O)Nc1cc(OC)c(c(c1)OC)OC
 37 37  0  0  0  0  0  0  0  0999 V2000
    0.0000    0.0000    0.0000 S   0  0  0  0  0  0  0  0  0  0  0  0
    0.0000    0.0000    1.8396 C   0  0  0  0  0  0  0  0  0  0  0  0
    1.4032   -0.0000    2.4522 C   0  0  0  0  0  0  0  0  0  0  0  0
    2.2405   -1.0958    2.0041 N   0  0  0  0  0  0  0  0  0  0  0  0
    1.9813   -2.3731    2.4682 C   0  0  0  0  0  0  0  0  0  0  0  0
    1.1860   -2.5902    3.3700 O   0  0  0  0  0  0  0  0  0  0  0  0
    2.7238   -3.3452    1.8232 N   0  0  0  0  0  0  0  0  0  0  0  0
    2.6947   -4.7381    2.0143 C   0  0  0  0  0  0  0  0  0  0  0  0
    3.5510   -5.5154    1.2244 C   0  0  0  0  0  0  0  0  0  0  0  0
    3.5756   -6.9070    1.3675 C   0  0  0  0  0  0  0  0  0  0  0  0
    4.4734   -7.6118    0.6194 O   0  0  0  0  0  0  0  0  0  0  0  0
    3.9430   -8.5723   -0.2844 C   0  0  0  0  0  0  0  0  0  0  0  0
    2.7261   -7.5412    2.2857 C   0  0  0  0  0  0  0  0  0  0  0  0
    1.8634   -6.7484    3.0736 C   0  0  0  0  0  0  0  0  0  0  0  0
    1.8408   -5.3558    2.9430 C   0  0  0  0  0  0  0  0  0  0  0  0
    1.0930   -7.4291    3.9574 O   0  0  0  0  0  0  0  0  0  0  0  0
    0.2055   -6.7048    4.7808 C   0  0  0  0  0  0  0  0  0  0  0  0
    2.7400   -8.9035    2.4193 O   0  0  0  0  0  0  0  0  0  0  0  0
    3.4786   -9.3850    3.5319 C   0  0  0  0  0  0  0  0  0  0  0  0
    0.1754   -1.3319   -0.1562 H   0  0  0  0  0  0  0  0  0  0  0  0
   -0.5728   -0.8656    2.1989 H   0  0  0  0  0  0  0  0  0  0  0  0
   -0.5431    0.9099    2.1369 H   0  0  0  0  0  0  0  0  0  0  0  0
    1.3105   -0.0681    3.5463 H   0  0  0  0  0  0  0  0  0  0  0  0
    1.9209    0.9408    2.2104 H   0  0  0  0  0  0  0  0  0  0  0  0
    2.5976   -1.0020    1.0589 H   0  0  0  0  0  0  0  0  0  0  0  0
    3.4346   -3.0220    1.1787 H   0  0  0  0  0  0  0  0  0  0  0  0
    4.2236   -5.0642    0.4921 H   0  0  0  0  0  0  0  0  0  0  0  0
    3.3888   -9.3631    0.2425 H   0  0  0  0  0  0  0  0  0  0  0  0
    3.2751   -8.0899   -1.0212 H   0  0  0  0  0  0  0  0  0  0  0  0
    4.8002   -9.0102   -0.8148 H   0  0  0  0  0  0  0  0  0  0  0  0
    1.1923   -4.7328    3.5486 H   0  0  0  0  0  0  0  0  0  0  0  0
   -0.5387   -6.1470    4.1860 H   0  0  0  0  0  0  0  0  0  0  0  0
   -0.3133   -7.4443    5.4049 H   0  0  0  0  0  0  0  0  0  0  0  0
    0.7404   -5.9911    5.4318 H   0  0  0  0  0  0  0  0  0  0  0  0
    3.0434   -9.0312    4.4813 H   0  0  0  0  0  0  0  0  0  0  0  0
    4.5353   -9.0692    3.4738 H   0  0  0  0  0  0  0  0  0  0  0  0
    3.4281  -10.4827    3.5007 H   0  0  0  0  0  0  0  0  0  0  0  0
  1  2  1  0  0  0  0
  2 22  1  0  0  0  0
  2 21  1  0  0  0  0
  2  3  1  0  0  0  0
  3 23  1  0  0  0  0
  4  3  1  0  0  0  0
  4  5  1  0  0  0  0
  5  6  2  0  0  0  0
  7  8  1  0  0  0  0
  7  5  1  0  0  0  0
  8 15  2  0  0  0  0
  9 10  2  0  0  0  0
  9  8  1  0  0  0  0
 10 13  1  0  0  0  0
 11 10  1  0  0  0  0
 12 28  1  0  0  0  0
 12 11  1  0  0  0  0
 13 18  1  0  0  0  0
 13 14  2  0  0  0  0
 14 16  1  0  0  0  0
 15 14  1  0  0  0  0
 15 31  1  0  0  0  0
 16 17  1  0  0  0  0
 17 33  1  0  0  0  0
 17 34  1  0  0  0  0
 18 19  1  0  0  0  0
 19 35  1  0  0  0  0
 20  1  1  0  0  0  0
 24  3  1  0  0  0  0
 25  4  1  0  0  0  0
 26  7  1  0  0  0  0
 27  9  1  0  0  0  0
 29 12  1  0  0  0  0
 30 12  1  0  0  0  0
 32 17  1  0  0  0  0
 36 19  1  0  0  0  0
 37 19  1  0  0  0  0
M  END
