186800915.xyz
 OpenBabel08132112083D
SCCNC(=O)c1ccc2c(c1)nc[nH]2
 26 27  0  0  0  0  0  0  0  0999 V2000
    0.0000    0.0000    0.0000 S   0  0  0  0  0  0  0  0  0  0  0  0
    0.0000   -0.0000    1.8316 C   0  0  0  0  0  0  0  0  0  0  0  0
    1.4086    0.0000    2.4310 C   0  0  0  0  0  0  0  0  0  0  0  0
    1.3915    0.0243    3.8814 N   0  0  0  0  0  0  0  0  0  0  0  0
    1.1722   -1.1166    4.6021 C   0  0  0  0  0  0  0  0  0  0  0  0
    1.0151   -2.2000    4.0539 O   0  0  0  0  0  0  0  0  0  0  0  0
    1.1505   -0.9715    6.0974 C   0  0  0  0  0  0  0  0  0  0  0  0
    1.3369   -2.1567    6.8509 C   0  0  0  0  0  0  0  0  0  0  0  0
    1.3318   -2.1541    8.2403 C   0  0  0  0  0  0  0  0  0  0  0  0
    1.1183   -0.9229    8.8717 C   0  0  0  0  0  0  0  0  0  0  0  0
    0.9102    0.2769    8.1396 C   0  0  0  0  0  0  0  0  0  0  0  0
    0.9239    0.2493    6.7399 C   0  0  0  0  0  0  0  0  0  0  0  0
    0.7075    1.3384    9.0080 N   0  0  0  0  0  0  0  0  0  0  0  0
    0.7908    0.8201   10.2034 C   0  0  0  0  0  0  0  0  0  0  0  0
    1.0370   -0.5375   10.1945 N   0  0  0  0  0  0  0  0  0  0  0  0
    0.5015   -1.2483   -0.1488 H   0  0  0  0  0  0  0  0  0  0  0  0
   -0.5660   -0.8636    2.2077 H   0  0  0  0  0  0  0  0  0  0  0  0
   -0.5434    0.9124    2.1225 H   0  0  0  0  0  0  0  0  0  0  0  0
    1.9350   -0.9103    2.1045 H   0  0  0  0  0  0  0  0  0  0  0  0
    1.9741    0.8691    2.0645 H   0  0  0  0  0  0  0  0  0  0  0  0
    1.6105    0.8850    4.3634 H   0  0  0  0  0  0  0  0  0  0  0  0
    1.4819   -3.0835    6.2942 H   0  0  0  0  0  0  0  0  0  0  0  0
    1.4823   -3.0755    8.8066 H   0  0  0  0  0  0  0  0  0  0  0  0
    0.7286    1.1740    6.1939 H   0  0  0  0  0  0  0  0  0  0  0  0
    0.6834    1.3691   11.1402 H   0  0  0  0  0  0  0  0  0  0  0  0
    1.1327   -1.1360   11.0048 H   0  0  0  0  0  0  0  0  0  0  0  0
  1  2  1  0  0  0  0
  2 18  1  0  0  0  0
  2 17  1  0  0  0  0
  2  3  1  0  0  0  0
  3  4  1  0  0  0  0
  4 21  1  0  0  0  0
  4  5  1  0  0  0  0
  5  7  1  0  0  0  0
  6  5  2  0  0  0  0
  7 12  1  0  0  0  0
  7  8  2  0  0  0  0
  8  9  1  0  0  0  0
  9 23  1  0  0  0  0
  9 10  2  0  0  0  0
 10 15  1  0  0  0  0
 11 10  1  0  0  0  0
 11 13  2  0  0  0  0
 12 11  1  0  0  0  0
 13 14  2  0  0  0  0
 14 25  1  0  0  0  0
 15 14  1  0  0  0  0
 15 26  1  0  0  0  0
 16  1  1  0  0  0  0
 19  3  1  0  0  0  0
 20  3  1  0  0  0  0
 22  8  1  0  0  0  0
 24 12  1  0  0  0  0
M  RAD  1  12   2
M  END
