186804943.xyz
 OpenBabel08132112083D
SCCNC(=O)CCC1CCCCC1
 35 35  0  0  0  0  0  0  0  0999 V2000
    0.0000    0.0000    0.0000 S   0  0  0  0  0  0  0  0  0  0  0  0
    0.0000    0.0000    1.8361 C   0  0  0  0  0  0  0  0  0  0  0  0
    1.3981    0.0000    2.4562 C   0  0  0  0  0  0  0  0  0  0  0  0
    2.1991   -1.1457    2.0728 N   0  0  0  0  0  0  0  0  0  0  0  0
    2.0409   -2.3637    2.6734 C   0  0  0  0  0  0  0  0  0  0  0  0
    1.2838   -2.5271    3.6171 O   0  0  0  0  0  0  0  0  0  0  0  0
    2.8616   -3.4988    2.0726 C   0  0  0  0  0  0  0  0  0  0  0  0
    3.3675   -4.4690    3.1394 C   0  0  0  0  0  0  0  0  0  0  0  0
    3.9818   -5.7581    2.5815 C   0  0  0  0  0  0  0  0  0  0  0  0
    4.4246   -6.7075    3.7246 C   0  0  0  0  0  0  0  0  0  0  0  0
    5.9056   -6.5288    4.0683 C   0  0  0  0  0  0  0  0  0  0  0  0
    6.8027   -6.9336    2.8797 C   0  0  0  0  0  0  0  0  0  0  0  0
    6.1141   -6.6661    1.5245 C   0  0  0  0  0  0  0  0  0  0  0  0
    5.1590   -5.4740    1.6179 C   0  0  0  0  0  0  0  0  0  0  0  0
    0.4074   -1.2814   -0.1463 H   0  0  0  0  0  0  0  0  0  0  0  0
   -0.5394    0.9149    2.1255 H   0  0  0  0  0  0  0  0  0  0  0  0
   -0.5785   -0.8590    2.2044 H   0  0  0  0  0  0  0  0  0  0  0  0
    1.2951   -0.0150    3.5525 H   0  0  0  0  0  0  0  0  0  0  0  0
    1.9387    0.9141    2.1681 H   0  0  0  0  0  0  0  0  0  0  0  0
    2.7647   -1.0791    1.2363 H   0  0  0  0  0  0  0  0  0  0  0  0
    3.6876   -3.0960    1.4651 H   0  0  0  0  0  0  0  0  0  0  0  0
    2.1939   -4.0397    1.3762 H   0  0  0  0  0  0  0  0  0  0  0  0
    4.1105   -3.9535    3.7752 H   0  0  0  0  0  0  0  0  0  0  0  0
    2.5194   -4.7125    3.7975 H   0  0  0  0  0  0  0  0  0  0  0  0
    3.1933   -6.2745    2.0040 H   0  0  0  0  0  0  0  0  0  0  0  0
    4.2548   -7.7558    3.4258 H   0  0  0  0  0  0  0  0  0  0  0  0
    3.7939   -6.5378    4.6120 H   0  0  0  0  0  0  0  0  0  0  0  0
    6.1707   -7.1117    4.9646 H   0  0  0  0  0  0  0  0  0  0  0  0
    6.0856   -5.4724    4.3318 H   0  0  0  0  0  0  0  0  0  0  0  0
    7.0657   -8.0021    2.9527 H   0  0  0  0  0  0  0  0  0  0  0  0
    7.7549   -6.3797    2.9335 H   0  0  0  0  0  0  0  0  0  0  0  0
    5.5378   -7.5545    1.2127 H   0  0  0  0  0  0  0  0  0  0  0  0
    6.8677   -6.5018    0.7378 H   0  0  0  0  0  0  0  0  0  0  0  0
    4.7767   -5.2051    0.6203 H   0  0  0  0  0  0  0  0  0  0  0  0
    5.7229   -4.5929    1.9764 H   0  0  0  0  0  0  0  0  0  0  0  0
  1  2  1  0  0  0  0
  2 16  1  0  0  0  0
  2 17  1  0  0  0  0
  2  3  1  0  0  0  0
  3 18  1  0  0  0  0
  4  3  1  0  0  0  0
  4  5  1  0  0  0  0
  5  6  2  0  0  0  0
  7  5  1  0  0  0  0
  7  8  1  0  0  0  0
  8 23  1  0  0  0  0
  8 24  1  0  0  0  0
  9  8  1  0  0  0  0
  9 10  1  0  0  0  0
 10 11  1  0  0  0  0
 10 27  1  0  0  0  0
 11 29  1  0  0  0  0
 11 28  1  0  0  0  0
 12 31  1  0  0  0  0
 12 30  1  0  0  0  0
 12 11  1  0  0  0  0
 13 14  1  0  0  0  0
 13 12  1  0  0  0  0
 14 35  1  0  0  0  0
 14  9  1  0  0  0  0
 15  1  1  0  0  0  0
 19  3  1  0  0  0  0
 20  4  1  0  0  0  0
 21  7  1  0  0  0  0
 22  7  1  0  0  0  0
 25  9  1  0  0  0  0
 26 10  1  0  0  0  0
 32 13  1  0  0  0  0
 33 13  1  0  0  0  0
 34 14  1  0  0  0  0
M  END
