186814792.xyz
 OpenBabel08132112083D
O=C(C(C)C)Nc1ccccc1S
 26 26  0  0  0  0  0  0  0  0999 V2000
   -4.0218   -0.0885    3.4438 O   0  0  0  0  0  0  0  0  0  0  0  0
   -3.7121   -0.1229    2.2664 C   0  0  0  0  0  0  0  0  0  0  0  0
   -4.7550   -0.2705    1.1538 C   0  0  0  0  0  0  0  0  0  0  0  0
   -6.0202    0.5108    1.5070 C   0  0  0  0  0  0  0  0  0  0  0  0
   -5.0452   -1.7676    0.9522 C   0  0  0  0  0  0  0  0  0  0  0  0
   -2.4158   -0.0840    1.8047 N   0  0  0  0  0  0  0  0  0  0  0  0
   -1.2181   -0.0605    2.5239 C   0  0  0  0  0  0  0  0  0  0  0  0
   -1.1699   -0.0937    3.9299 C   0  0  0  0  0  0  0  0  0  0  0  0
    0.0593   -0.0839    4.5876 C   0  0  0  0  0  0  0  0  0  0  0  0
    1.2600   -0.0410    3.8745 C   0  0  0  0  0  0  0  0  0  0  0  0
    1.2216    0.0000    2.4805 C   0  0  0  0  0  0  0  0  0  0  0  0
    0.0000   -0.0000    1.8002 C   0  0  0  0  0  0  0  0  0  0  0  0
    0.0000    0.0000    0.0000 S   0  0  0  0  0  0  0  0  0  0  0  0
   -4.3291    0.1310    0.2170 H   0  0  0  0  0  0  0  0  0  0  0  0
   -6.7949    0.3626    0.7390 H   0  0  0  0  0  0  0  0  0  0  0  0
   -6.4117    0.1708    2.4767 H   0  0  0  0  0  0  0  0  0  0  0  0
   -5.8169    1.5897    1.5895 H   0  0  0  0  0  0  0  0  0  0  0  0
   -5.7888   -1.9143    0.1534 H   0  0  0  0  0  0  0  0  0  0  0  0
   -4.1345   -2.3233    0.6789 H   0  0  0  0  0  0  0  0  0  0  0  0
   -5.4449   -2.2040    1.8808 H   0  0  0  0  0  0  0  0  0  0  0  0
   -2.2811   -0.1248    0.7966 H   0  0  0  0  0  0  0  0  0  0  0  0
   -2.1073   -0.1269    4.4793 H   0  0  0  0  0  0  0  0  0  0  0  0
    0.0737   -0.1125    5.6799 H   0  0  0  0  0  0  0  0  0  0  0  0
    2.2189   -0.0374    4.3967 H   0  0  0  0  0  0  0  0  0  0  0  0
    2.1443    0.0367    1.8983 H   0  0  0  0  0  0  0  0  0  0  0  0
   -0.2152    1.3286   -0.1750 H   0  0  0  0  0  0  0  0  0  0  0  0
  2  1  2  0  0  0  0
  3  4  1  0  0  0  0
  3  2  1  0  0  0  0
  4 17  1  0  0  0  0
  4 16  1  0  0  0  0
  5  3  1  0  0  0  0
  5 20  1  0  0  0  0
  6  2  1  0  0  0  0
  6  7  1  0  0  0  0
  7  8  2  0  0  0  0
  8 22  1  0  0  0  0
  8  9  1  0  0  0  0
  9 23  1  0  0  0  0
 10 24  1  0  0  0  0
 10  9  2  0  0  0  0
 11 10  1  0  0  0  0
 12 11  2  0  0  0  0
 12  7  1  0  0  0  0
 13 12  1  0  0  0  0
 14  3  1  0  0  0  0
 15  4  1  0  0  0  0
 18  5  1  0  0  0  0
 19  5  1  0  0  0  0
 21  6  1  0  0  0  0
 25 11  1  0  0  0  0
 26 13  1  0  0  0  0
M  END
