186836682.xyz
 OpenBabel08132112083D
SCCC(=O)N1CCN(CC1)c1ccc(cc1)F
 35 36  0  0  0  0  0  0  0  0999 V2000
    0.0000    0.0000    0.0000 S   0  0  0  0  0  0  0  0  0  0  0  0
    0.0000    0.0000    1.8348 C   0  0  0  0  0  0  0  0  0  0  0  0
    1.3928    0.0000    2.4527 C   0  0  0  0  0  0  0  0  0  0  0  0
    2.1283   -1.3180    2.2258 C   0  0  0  0  0  0  0  0  0  0  0  0
    1.5637   -2.2944    1.7490 O   0  0  0  0  0  0  0  0  0  0  0  0
    3.4475   -1.3535    2.5920 N   0  0  0  0  0  0  0  0  0  0  0  0
    4.2237   -2.5596    2.3273 C   0  0  0  0  0  0  0  0  0  0  0  0
    5.6010   -2.2070    1.7814 C   0  0  0  0  0  0  0  0  0  0  0  0
    6.3124   -1.3340    2.7043 N   0  0  0  0  0  0  0  0  0  0  0  0
    5.5239   -0.6323    3.6954 C   0  0  0  0  0  0  0  0  0  0  0  0
    4.1735   -0.2050    3.1257 C   0  0  0  0  0  0  0  0  0  0  0  0
    7.7004   -1.2923    2.7164 C   0  0  0  0  0  0  0  0  0  0  0  0
    8.4185   -0.7822    3.8223 C   0  0  0  0  0  0  0  0  0  0  0  0
    9.8126   -0.7341    3.8178 C   0  0  0  0  0  0  0  0  0  0  0  0
   10.5161   -1.2080    2.7157 C   0  0  0  0  0  0  0  0  0  0  0  0
    9.8418   -1.7272    1.6154 C   0  0  0  0  0  0  0  0  0  0  0  0
    8.4479   -1.7663    1.6132 C   0  0  0  0  0  0  0  0  0  0  0  0
   11.8608   -1.1664    2.7150 F   0  0  0  0  0  0  0  0  0  0  0  0
    0.4603   -1.2663   -0.1132 H   0  0  0  0  0  0  0  0  0  0  0  0
   -0.5385    0.9141    2.1236 H   0  0  0  0  0  0  0  0  0  0  0  0
   -0.5783   -0.8637    2.1897 H   0  0  0  0  0  0  0  0  0  0  0  0
    1.3174    0.1672    3.5438 H   0  0  0  0  0  0  0  0  0  0  0  0
    1.9836    0.8371    2.0481 H   0  0  0  0  0  0  0  0  0  0  0  0
    4.3293   -3.1631    3.2466 H   0  0  0  0  0  0  0  0  0  0  0  0
    3.6604   -3.1630    1.6050 H   0  0  0  0  0  0  0  0  0  0  0  0
    5.4933   -1.7454    0.7796 H   0  0  0  0  0  0  0  0  0  0  0  0
    6.1693   -3.1420    1.6450 H   0  0  0  0  0  0  0  0  0  0  0  0
    6.0534    0.2821    3.9995 H   0  0  0  0  0  0  0  0  0  0  0  0
    5.3683   -1.2315    4.6164 H   0  0  0  0  0  0  0  0  0  0  0  0
    3.5961    0.2779    3.9290 H   0  0  0  0  0  0  0  0  0  0  0  0
    4.3416    0.5533    2.3389 H   0  0  0  0  0  0  0  0  0  0  0  0
    7.8916   -0.4365    4.7111 H   0  0  0  0  0  0  0  0  0  0  0  0
   10.3622   -0.3421    4.6757 H   0  0  0  0  0  0  0  0  0  0  0  0
   10.4136   -2.0891    0.7588 H   0  0  0  0  0  0  0  0  0  0  0  0
    7.9395   -2.1504    0.7296 H   0  0  0  0  0  0  0  0  0  0  0  0
  1  2  1  0  0  0  0
  2 20  1  0  0  0  0
  2 21  1  0  0  0  0
  2  3  1  0  0  0  0
  3 22  1  0  0  0  0
  4  3  1  0  0  0  0
  4  6  1  0  0  0  0
  5  4  2  0  0  0  0
  6 11  1  0  0  0  0
  7  6  1  0  0  0  0
  7 24  1  0  0  0  0
  8  7  1  0  0  0  0
  8  9  1  0  0  0  0
  9 12  1  0  0  0  0
  9 10  1  0  0  0  0
 10 28  1  0  0  0  0
 10 29  1  0  0  0  0
 11 10  1  0  0  0  0
 11 30  1  0  0  0  0
 12 13  2  0  0  0  0
 13 32  1  0  0  0  0
 14 13  1  0  0  0  0
 14 33  1  0  0  0  0
 15 14  2  0  0  0  0
 16 15  1  0  0  0  0
 17 16  2  0  0  0  0
 17 12  1  0  0  0  0
 18 15  1  0  0  0  0
 19  1  1  0  0  0  0
 23  3  1  0  0  0  0
 25  7  1  0  0  0  0
 26  8  1  0  0  0  0
 27  8  1  0  0  0  0
 31 11  1  0  0  0  0
 34 16  1  0  0  0  0
 35 17  1  0  0  0  0
M  END
