186836646.xyz
 OpenBabel08132112083D
SCCC(=O)NC(c1ccc(c(c1)OC)OC)C
 37 37  0  0  1  0  0  0  0  0999 V2000
    0.0000    0.0000    0.0000 S   0  0  0  0  0  0  0  0  0  0  0  0
    0.0000    0.0000    1.8379 C   0  0  0  0  0  0  0  0  0  0  0  0
    1.4390   -0.0000    2.3356 C   0  0  0  0  0  0  0  0  0  0  0  0
    1.5015   -0.1084    3.8581 C   0  0  0  0  0  0  0  0  0  0  0  0
    0.6013   -0.6102    4.5136 O   0  0  0  0  0  0  0  0  0  0  0  0
    2.6401    0.3825    4.4210 N   0  0  0  0  0  0  0  0  0  0  0  0
    2.9135    0.2899    5.8557 C   0  0  2  0  0  0  0  0  0  0  0  0
    3.6718    1.5316    6.2978 C   0  0  0  0  0  0  0  0  0  0  0  0
    4.9073    1.4881    6.9344 C   0  0  0  0  0  0  0  0  0  0  0  0
    5.5577    2.6730    7.3199 C   0  0  0  0  0  0  0  0  0  0  0  0
    4.9823    3.9168    7.0718 C   0  0  0  0  0  0  0  0  0  0  0  0
    3.7178    3.9740    6.4197 C   0  0  0  0  0  0  0  0  0  0  0  0
    3.0873    2.7912    6.0459 C   0  0  0  0  0  0  0  0  0  0  0  0
    3.2195    5.2156    6.2150 O   0  0  0  0  0  0  0  0  0  0  0  0
    1.9691    5.3442    5.5824 C   0  0  0  0  0  0  0  0  0  0  0  0
    5.5282    5.1100    7.4023 O   0  0  0  0  0  0  0  0  0  0  0  0
    6.7753    5.1226    8.0536 C   0  0  0  0  0  0  0  0  0  0  0  0
    3.5782   -1.0418    6.2052 C   0  0  0  0  0  0  0  0  0  0  0  0
   -1.3420   -0.0645   -0.1545 H   0  0  0  0  0  0  0  0  0  0  0  0
   -0.5157   -0.8890    2.2238 H   0  0  0  0  0  0  0  0  0  0  0  0
   -0.5318    0.8874    2.2121 H   0  0  0  0  0  0  0  0  0  0  0  0
    1.9778   -0.8684    1.9153 H   0  0  0  0  0  0  0  0  0  0  0  0
    1.9759    0.8994    1.9906 H   0  0  0  0  0  0  0  0  0  0  0  0
    3.3671    0.7631    3.8264 H   0  0  0  0  0  0  0  0  0  0  0  0
    1.9194    0.2977    6.3315 H   0  0  0  0  0  0  0  0  0  0  0  0
    5.3909    0.5350    7.1481 H   0  0  0  0  0  0  0  0  0  0  0  0
    6.5246    2.6077    7.8179 H   0  0  0  0  0  0  0  0  0  0  0  0
    2.1211    2.8240    5.5431 H   0  0  0  0  0  0  0  0  0  0  0  0
    1.7570    6.4198    5.5224 H   0  0  0  0  0  0  0  0  0  0  0  0
    1.9802    4.9228    4.5604 H   0  0  0  0  0  0  0  0  0  0  0  0
    1.1648    4.8499    6.1571 H   0  0  0  0  0  0  0  0  0  0  0  0
    6.7367    4.5965    9.0250 H   0  0  0  0  0  0  0  0  0  0  0  0
    7.0276    6.1769    8.2284 H   0  0  0  0  0  0  0  0  0  0  0  0
    7.5668    4.6615    7.4349 H   0  0  0  0  0  0  0  0  0  0  0  0
    3.7239   -1.1399    7.2914 H   0  0  0  0  0  0  0  0  0  0  0  0
    4.5579   -1.1451    5.7121 H   0  0  0  0  0  0  0  0  0  0  0  0
    2.9318   -1.8658    5.8712 H   0  0  0  0  0  0  0  0  0  0  0  0
  1  2  1  0  0  0  0
  2 21  1  0  0  0  0
  2 20  1  0  0  0  0
  2  3  1  0  0  0  0
  3  4  1  0  0  0  0
  4  6  1  0  0  0  0
  4  5  2  0  0  0  0
  6  7  1  0  0  0  0
  7 18  1  0  0  0  0
  7  8  1  0  0  0  0
  7 25  1  1  0  0  0
  8  9  1  0  0  0  0
  9 26  1  0  0  0  0
  9 10  2  0  0  0  0
 10 27  1  0  0  0  0
 11 10  1  0  0  0  0
 11 16  1  0  0  0  0
 12 11  2  0  0  0  0
 13  8  2  0  0  0  0
 13 12  1  0  0  0  0
 14 12  1  0  0  0  0
 15 31  1  0  0  0  0
 15 14  1  0  0  0  0
 16 17  1  0  0  0  0
 17 33  1  0  0  0  0
 17 32  1  0  0  0  0
 18 35  1  0  0  0  0
 19  1  1  0  0  0  0
 22  3  1  0  0  0  0
 23  3  1  0  0  0  0
 24  6  1  0  0  0  0
 28 13  1  0  0  0  0
 29 15  1  0  0  0  0
 30 15  1  0  0  0  0
 34 17  1  0  0  0  0
 36 18  1  0  0  0  0
 37 18  1  0  0  0  0
M  END
