186801619.xyz
 OpenBabel08132112083D
O=C(c1ccccc1S)NCCc1coc2c1cccc2
 36 38  0  0  0  0  0  0  0  0999 V2000
    3.5387    0.4902    2.5273 O   0  0  0  0  0  0  0  0  0  0  0  0
    2.6022   -0.0485    1.9536 C   0  0  0  0  0  0  0  0  0  0  0  0
    1.2066    0.0000    2.5271 C   0  0  0  0  0  0  0  0  0  0  0  0
    1.1441    0.0897    3.9273 C   0  0  0  0  0  0  0  0  0  0  0  0
   -0.0697    0.1361    4.6052 C   0  0  0  0  0  0  0  0  0  0  0  0
   -1.2595    0.1150    3.8723 C   0  0  0  0  0  0  0  0  0  0  0  0
   -1.2232    0.0584    2.4811 C   0  0  0  0  0  0  0  0  0  0  0  0
   -0.0000   -0.0000    1.7905 C   0  0  0  0  0  0  0  0  0  0  0  0
    0.0000    0.0000    0.0000 S   0  0  0  0  0  0  0  0  0  0  0  0
    2.7712   -0.7438    0.7933 N   0  0  0  0  0  0  0  0  0  0  0  0
    4.0759   -0.8566    0.1709 C   0  0  0  0  0  0  0  0  0  0  0  0
    4.9857   -1.8977    0.8505 C   0  0  0  0  0  0  0  0  0  0  0  0
    6.3116   -2.0190    0.1692 C   0  0  0  0  0  0  0  0  0  0  0  0
    7.5129   -1.5243    0.5837 C   0  0  0  0  0  0  0  0  0  0  0  0
    8.5217   -1.7785   -0.3069 O   0  0  0  0  0  0  0  0  0  0  0  0
    7.9614   -2.4600   -1.3445 C   0  0  0  0  0  0  0  0  0  0  0  0
    6.5815   -2.6431   -1.1131 C   0  0  0  0  0  0  0  0  0  0  0  0
    5.8168   -3.3338   -2.0678 C   0  0  0  0  0  0  0  0  0  0  0  0
    6.4549   -3.8091   -3.2127 C   0  0  0  0  0  0  0  0  0  0  0  0
    7.8351   -3.6083   -3.4170 C   0  0  0  0  0  0  0  0  0  0  0  0
    8.6160   -2.9278   -2.4806 C   0  0  0  0  0  0  0  0  0  0  0  0
    2.0927    0.1260    4.4652 H   0  0  0  0  0  0  0  0  0  0  0  0
   -0.0901    0.1941    5.6953 H   0  0  0  0  0  0  0  0  0  0  0  0
   -2.2252    0.1545    4.3819 H   0  0  0  0  0  0  0  0  0  0  0  0
   -2.1599    0.0709    1.9193 H   0  0  0  0  0  0  0  0  0  0  0  0
   -1.3420   -0.1019   -0.1271 H   0  0  0  0  0  0  0  0  0  0  0  0
    2.0043   -1.2954    0.4256 H   0  0  0  0  0  0  0  0  0  0  0  0
    4.5676    0.1256    0.2206 H   0  0  0  0  0  0  0  0  0  0  0  0
    3.9307   -1.1055   -0.8913 H   0  0  0  0  0  0  0  0  0  0  0  0
    4.4727   -2.8752    0.8521 H   0  0  0  0  0  0  0  0  0  0  0  0
    5.1207   -1.5964    1.8993 H   0  0  0  0  0  0  0  0  0  0  0  0
    7.8003   -0.9786    1.4793 H   0  0  0  0  0  0  0  0  0  0  0  0
    4.7471   -3.4979   -1.9173 H   0  0  0  0  0  0  0  0  0  0  0  0
    5.8779   -4.3484   -3.9675 H   0  0  0  0  0  0  0  0  0  0  0  0
    8.3037   -3.9936   -4.3254 H   0  0  0  0  0  0  0  0  0  0  0  0
    9.6856   -2.7665   -2.6230 H   0  0  0  0  0  0  0  0  0  0  0  0
  2  3  1  0  0  0  0
  2  1  2  0  0  0  0
  3  4  2  0  0  0  0
  4 22  1  0  0  0  0
  4  5  1  0  0  0  0
  5 23  1  0  0  0  0
  6 24  1  0  0  0  0
  6  5  2  0  0  0  0
  7  6  1  0  0  0  0
  8  7  2  0  0  0  0
  8  3  1  0  0  0  0
  9  8  1  0  0  0  0
 10  2  1  0  0  0  0
 11 28  1  0  0  0  0
 11 10  1  0  0  0  0
 11 12  1  0  0  0  0
 12 30  1  0  0  0  0
 12 31  1  0  0  0  0
 13 14  2  0  0  0  0
 13 12  1  0  0  0  0
 14 32  1  0  0  0  0
 15 14  1  0  0  0  0
 16 17  1  0  0  0  0
 16 15  1  0  0  0  0
 17 13  1  0  0  0  0
 18 33  1  0  0  0  0
 18 17  2  0  0  0  0
 19 18  1  0  0  0  0
 20 19  2  0  0  0  0
 20 21  1  0  0  0  0
 21 16  2  0  0  0  0
 25  7  1  0  0  0  0
 26  9  1  0  0  0  0
 27 10  1  0  0  0  0
 29 11  1  0  0  0  0
 34 19  1  0  0  0  0
 35 20  1  0  0  0  0
 36 21  1  0  0  0  0
M  END
