186836574.xyz
 OpenBabel08132112083D
COCCNC(=O)CCS
 23 22  0  0  0  0  0  0  0  0999 V2000
    5.2156    1.5556    6.5766 C   0  0  0  0  0  0  0  0  0  0  0  0
    3.9955    2.0884    6.1222 O   0  0  0  0  0  0  0  0  0  0  0  0
    2.8429    1.5322    6.7256 C   0  0  0  0  0  0  0  0  0  0  0  0
    2.4650    0.1877    6.1118 C   0  0  0  0  0  0  0  0  0  0  0  0
    2.3417    0.3185    4.6763 N   0  0  0  0  0  0  0  0  0  0  0  0
    1.3285   -0.2450    3.9606 C   0  0  0  0  0  0  0  0  0  0  0  0
    0.4480   -0.9183    4.4727 O   0  0  0  0  0  0  0  0  0  0  0  0
    1.3904    0.0000    2.4539 C   0  0  0  0  0  0  0  0  0  0  0  0
   -0.0000    0.0000    1.8310 C   0  0  0  0  0  0  0  0  0  0  0  0
    0.0000    0.0000    0.0000 S   0  0  0  0  0  0  0  0  0  0  0  0
    6.0247    2.1029    6.0719 H   0  0  0  0  0  0  0  0  0  0  0  0
    5.3329    1.6830    7.6709 H   0  0  0  0  0  0  0  0  0  0  0  0
    5.3283    0.4787    6.3451 H   0  0  0  0  0  0  0  0  0  0  0  0
    2.0298    2.2544    6.5521 H   0  0  0  0  0  0  0  0  0  0  0  0
    2.9819    1.4246    7.8193 H   0  0  0  0  0  0  0  0  0  0  0  0
    1.4987   -0.1625    6.5030 H   0  0  0  0  0  0  0  0  0  0  0  0
    3.2140   -0.5826    6.3750 H   0  0  0  0  0  0  0  0  0  0  0  0
    3.0269    0.9064    4.2151 H   0  0  0  0  0  0  0  0  0  0  0  0
    1.9898   -0.8110    2.0054 H   0  0  0  0  0  0  0  0  0  0  0  0
    1.9223    0.9408    2.2337 H   0  0  0  0  0  0  0  0  0  0  0  0
   -0.5276   -0.9177    2.1264 H   0  0  0  0  0  0  0  0  0  0  0  0
   -0.6019    0.8423    2.2036 H   0  0  0  0  0  0  0  0  0  0  0  0
    0.5686    1.2183   -0.1600 H   0  0  0  0  0  0  0  0  0  0  0  0
  1 12  1  0  0  0  0
  2  1  1  0  0  0  0
  2  3  1  0  0  0  0
  3 15  1  0  0  0  0
  4 17  1  0  0  0  0
  4 16  1  0  0  0  0
  4  3  1  0  0  0  0
  5  4  1  0  0  0  0
  6  7  2  0  0  0  0
  6  5  1  0  0  0  0
  8  6  1  0  0  0  0
  9 21  1  0  0  0  0
  9 22  1  0  0  0  0
  9  8  1  0  0  0  0
 10  9  1  0  0  0  0
 11  1  1  0  0  0  0
 13  1  1  0  0  0  0
 14  3  1  0  0  0  0
 18  5  1  0  0  0  0
 19  8  1  0  0  0  0
 20  8  1  0  0  0  0
 23 10  1  0  0  0  0
M  END
