186900534.xyz
 OpenBabel08132112083D
SCCNC(=O)NC(c1ccccc1)c1ccccc1
 38 39  0  0  0  0  0  0  0  0999 V2000
    0.0000    0.0000    0.0000 S   0  0  0  0  0  0  0  0  0  0  0  0
   -0.0000    0.0000    1.8378 C   0  0  0  0  0  0  0  0  0  0  0  0
    1.4021    0.0000    2.4513 C   0  0  0  0  0  0  0  0  0  0  0  0
    2.2221   -1.1099    2.0120 N   0  0  0  0  0  0  0  0  0  0  0  0
    2.0372   -2.3460    2.6040 C   0  0  0  0  0  0  0  0  0  0  0  0
    1.3799   -2.5038    3.6234 O   0  0  0  0  0  0  0  0  0  0  0  0
    2.6633   -3.3823    1.9392 N   0  0  0  0  0  0  0  0  0  0  0  0
    2.7467   -4.6983    2.5605 C   0  0  0  0  0  0  0  0  0  0  0  0
    4.0485   -4.8259    3.3465 C   0  0  0  0  0  0  0  0  0  0  0  0
    5.2235   -5.3060    2.7516 C   0  0  0  0  0  0  0  0  0  0  0  0
    6.4231   -5.3301    3.4678 C   0  0  0  0  0  0  0  0  0  0  0  0
    6.4611   -4.8762    4.7891 C   0  0  0  0  0  0  0  0  0  0  0  0
    5.2939   -4.3932    5.3883 C   0  0  0  0  0  0  0  0  0  0  0  0
    4.0961   -4.3653    4.6705 C   0  0  0  0  0  0  0  0  0  0  0  0
    2.5085   -5.8239    1.5631 C   0  0  0  0  0  0  0  0  0  0  0  0
    2.6745   -7.1562    1.9748 C   0  0  0  0  0  0  0  0  0  0  0  0
    2.4284   -8.2111    1.0964 C   0  0  0  0  0  0  0  0  0  0  0  0
    2.0132   -7.9532   -0.2146 C   0  0  0  0  0  0  0  0  0  0  0  0
    1.8403   -6.6328   -0.6315 C   0  0  0  0  0  0  0  0  0  0  0  0
    2.0832   -5.5762    0.2530 C   0  0  0  0  0  0  0  0  0  0  0  0
    0.4781    1.2578   -0.1551 H   0  0  0  0  0  0  0  0  0  0  0  0
   -0.5235   -0.9249    2.1228 H   0  0  0  0  0  0  0  0  0  0  0  0
   -0.5959    0.8480    2.2076 H   0  0  0  0  0  0  0  0  0  0  0  0
    1.3099   -0.0671    3.5448 H   0  0  0  0  0  0  0  0  0  0  0  0
    1.9224    0.9421    2.2114 H   0  0  0  0  0  0  0  0  0  0  0  0
    2.4114   -1.1188    1.0134 H   0  0  0  0  0  0  0  0  0  0  0  0
    3.4316   -3.1337    1.3242 H   0  0  0  0  0  0  0  0  0  0  0  0
    1.9203   -4.7079    3.2863 H   0  0  0  0  0  0  0  0  0  0  0  0
    5.1964   -5.6769    1.7243 H   0  0  0  0  0  0  0  0  0  0  0  0
    7.3313   -5.7101    2.9930 H   0  0  0  0  0  0  0  0  0  0  0  0
    7.3978   -4.9006    5.3512 H   0  0  0  0  0  0  0  0  0  0  0  0
    5.3160   -4.0364    6.4210 H   0  0  0  0  0  0  0  0  0  0  0  0
    3.1855   -3.9691    5.1261 H   0  0  0  0  0  0  0  0  0  0  0  0
    3.0061   -7.3655    2.9945 H   0  0  0  0  0  0  0  0  0  0  0  0
    2.5622   -9.2412    1.4359 H   0  0  0  0  0  0  0  0  0  0  0  0
    1.8236   -8.7789   -0.9046 H   0  0  0  0  0  0  0  0  0  0  0  0
    1.5101   -6.4185   -1.6510 H   0  0  0  0  0  0  0  0  0  0  0  0
    1.9276   -4.5462   -0.0704 H   0  0  0  0  0  0  0  0  0  0  0  0
  1  2  1  0  0  0  0
  2 22  1  0  0  0  0
  2 23  1  0  0  0  0
  2  3  1  0  0  0  0
  3 24  1  0  0  0  0
  4  3  1  0  0  0  0
  4  5  1  0  0  0  0
  5  6  2  0  0  0  0
  7  8  1  0  0  0  0
  7  5  1  0  0  0  0
  8 28  1  0  0  0  0
  8  9  1  0  0  0  0
  9 14  1  0  0  0  0
 10  9  2  0  0  0  0
 10 11  1  0  0  0  0
 11 12  2  0  0  0  0
 12 31  1  0  0  0  0
 12 13  1  0  0  0  0
 13 32  1  0  0  0  0
 14 33  1  0  0  0  0
 14 13  2  0  0  0  0
 15 16  1  0  0  0  0
 15  8  1  0  0  0  0
 16 34  1  0  0  0  0
 17 35  1  0  0  0  0
 17 16  2  0  0  0  0
 18 17  1  0  0  0  0
 19 18  2  0  0  0  0
 19 20  1  0  0  0  0
 20 15  2  0  0  0  0
 21  1  1  0  0  0  0
 25  3  1  0  0  0  0
 26  4  1  0  0  0  0
 27  7  1  0  0  0  0
 29 10  1  0  0  0  0
 30 11  1  0  0  0  0
 36 18  1  0  0  0  0
 37 19  1  0  0  0  0
 38 20  1  0  0  0  0
M  END
