187067961.xyz
 OpenBabel08132112083D
O=C(c1ccccc1F)NCCNC(=O)c1ccccc1S
 37 38  0  0  0  0  0  0  0  0999 V2000
   -5.6576   -2.9688   -1.4626 O   0  0  0  0  0  0  0  0  0  0  0  0
   -6.5655   -2.3497   -0.9207 C   0  0  0  0  0  0  0  0  0  0  0  0
   -7.9497   -2.3377   -1.5277 C   0  0  0  0  0  0  0  0  0  0  0  0
   -8.1176   -3.0771   -2.7109 C   0  0  0  0  0  0  0  0  0  0  0  0
   -9.3455   -3.1437   -3.3643 C   0  0  0  0  0  0  0  0  0  0  0  0
  -10.4491   -2.4608   -2.8420 C   0  0  0  0  0  0  0  0  0  0  0  0
  -10.3156   -1.7167   -1.6695 C   0  0  0  0  0  0  0  0  0  0  0  0
   -9.0779   -1.6679   -1.0360 C   0  0  0  0  0  0  0  0  0  0  0  0
   -8.9995   -0.9316    0.0979 F   0  0  0  0  0  0  0  0  0  0  0  0
   -6.3760   -1.6634    0.2371 N   0  0  0  0  0  0  0  0  0  0  0  0
   -5.0740   -1.6228    0.8711 C   0  0  0  0  0  0  0  0  0  0  0  0
   -4.1102   -0.6550    0.1654 C   0  0  0  0  0  0  0  0  0  0  0  0
   -2.8057   -0.6162    0.7951 N   0  0  0  0  0  0  0  0  0  0  0  0
   -2.6014    0.0752    1.9513 C   0  0  0  0  0  0  0  0  0  0  0  0
   -3.5109    0.6620    2.5227 O   0  0  0  0  0  0  0  0  0  0  0  0
   -1.2057    0.0579    2.5259 C   0  0  0  0  0  0  0  0  0  0  0  0
   -1.1399    0.1454    3.9261 C   0  0  0  0  0  0  0  0  0  0  0  0
    0.0742    0.1339    4.6049 C   0  0  0  0  0  0  0  0  0  0  0  0
    1.2621    0.0552    3.8728 C   0  0  0  0  0  0  0  0  0  0  0  0
    1.2240    0.0000    2.4816 C   0  0  0  0  0  0  0  0  0  0  0  0
   -0.0000    0.0000    1.7899 C   0  0  0  0  0  0  0  0  0  0  0  0
    0.0000    0.0000    0.0000 S   0  0  0  0  0  0  0  0  0  0  0  0
   -7.2357   -3.5958   -3.0901 H   0  0  0  0  0  0  0  0  0  0  0  0
   -9.4446   -3.7272   -4.2818 H   0  0  0  0  0  0  0  0  0  0  0  0
  -11.4172   -2.5050   -3.3460 H   0  0  0  0  0  0  0  0  0  0  0  0
  -11.1522   -1.1700   -1.2314 H   0  0  0  0  0  0  0  0  0  0  0  0
   -7.1408   -1.1329    0.6321 H   0  0  0  0  0  0  0  0  0  0  0  0
   -4.6391   -2.6341    0.8584 H   0  0  0  0  0  0  0  0  0  0  0  0
   -5.2005   -1.3036    1.9143 H   0  0  0  0  0  0  0  0  0  0  0  0
   -3.9861   -0.9675   -0.8805 H   0  0  0  0  0  0  0  0  0  0  0  0
   -4.5404    0.3575    0.1852 H   0  0  0  0  0  0  0  0  0  0  0  0
   -2.0665   -1.2002    0.4206 H   0  0  0  0  0  0  0  0  0  0  0  0
   -2.0860    0.2274    4.4633 H   0  0  0  0  0  0  0  0  0  0  0  0
    0.0966    0.1913    5.6950 H   0  0  0  0  0  0  0  0  0  0  0  0
    2.2283    0.0482    4.3831 H   0  0  0  0  0  0  0  0  0  0  0  0
    2.1606   -0.0328    1.9204 H   0  0  0  0  0  0  0  0  0  0  0  0
    1.3348   -0.1716   -0.1274 H   0  0  0  0  0  0  0  0  0  0  0  0
  1  2  2  0  0  0  0
  2 10  1  0  0  0  0
  3  8  1  0  0  0  0
  3  2  1  0  0  0  0
  4  3  2  0  0  0  0
  5  6  2  0  0  0  0
  5  4  1  0  0  0  0
  6  7  1  0  0  0  0
  7 26  1  0  0  0  0
  7  8  2  0  0  0  0
  8  9  1  0  0  0  0
 10 27  1  0  0  0  0
 10 11  1  0  0  0  0
 11 29  1  0  0  0  0
 12 31  1  0  0  0  0
 12 13  1  0  0  0  0
 12 11  1  0  0  0  0
 13 14  1  0  0  0  0
 14 15  2  0  0  0  0
 14 16  1  0  0  0  0
 16 17  2  0  0  0  0
 17 33  1  0  0  0  0
 17 18  1  0  0  0  0
 18 34  1  0  0  0  0
 19 35  1  0  0  0  0
 19 18  2  0  0  0  0
 20 19  1  0  0  0  0
 21 20  2  0  0  0  0
 21 16  1  0  0  0  0
 22 21  1  0  0  0  0
 23  4  1  0  0  0  0
 24  5  1  0  0  0  0
 25  6  1  0  0  0  0
 28 11  1  0  0  0  0
 30 12  1  0  0  0  0
 32 13  1  0  0  0  0
 36 20  1  0  0  0  0
 37 22  1  0  0  0  0
M  END
