187060954.xyz
 OpenBabel08132112083D
O=C(N1CCN(CC1)C(=O)c1ccccc1S)CCCOc1ccccc1C
 54 56  0  0  0  0  0  0  0  0999 V2000
   -4.8785   -4.7206   -1.5976 O   0  0  0  0  0  0  0  0  0  0  0  0
   -4.3089   -4.8000   -0.5184 C   0  0  0  0  0  0  0  0  0  0  0  0
   -3.7612   -3.6980    0.0870 N   0  0  0  0  0  0  0  0  0  0  0  0
   -3.1179   -3.7170    1.3967 C   0  0  0  0  0  0  0  0  0  0  0  0
   -2.2242   -2.4959    1.5765 C   0  0  0  0  0  0  0  0  0  0  0  0
   -2.9940   -1.2636    1.4150 N   0  0  0  0  0  0  0  0  0  0  0  0
   -4.1580   -1.3228    0.5292 C   0  0  0  0  0  0  0  0  0  0  0  0
   -3.9509   -2.3873   -0.5366 C   0  0  0  0  0  0  0  0  0  0  0  0
   -2.5202   -0.0381    1.7907 C   0  0  0  0  0  0  0  0  0  0  0  0
   -3.0992    1.0076    1.5318 O   0  0  0  0  0  0  0  0  0  0  0  0
   -1.2005   -0.0401    2.5218 C   0  0  0  0  0  0  0  0  0  0  0  0
   -1.1580   -0.0382    3.9199 C   0  0  0  0  0  0  0  0  0  0  0  0
    0.0662   -0.0440    4.5924 C   0  0  0  0  0  0  0  0  0  0  0  0
    1.2577   -0.0359    3.8623 C   0  0  0  0  0  0  0  0  0  0  0  0
    1.2264    0.0000    2.4667 C   0  0  0  0  0  0  0  0  0  0  0  0
   -0.0000    0.0000    1.7896 C   0  0  0  0  0  0  0  0  0  0  0  0
    0.0000    0.0000    0.0000 S   0  0  0  0  0  0  0  0  0  0  0  0
   -4.1683   -6.1304    0.2192 C   0  0  0  0  0  0  0  0  0  0  0  0
   -4.8976   -7.2796   -0.4734 C   0  0  0  0  0  0  0  0  0  0  0  0
   -6.4180   -7.1337   -0.4285 C   0  0  0  0  0  0  0  0  0  0  0  0
   -7.0823   -8.2590   -0.9776 O   0  0  0  0  0  0  0  0  0  0  0  0
   -7.2097   -9.4084   -0.2613 C   0  0  0  0  0  0  0  0  0  0  0  0
   -6.8099   -9.5629    1.0727 C   0  0  0  0  0  0  0  0  0  0  0  0
   -7.0069  -10.7862    1.7239 C   0  0  0  0  0  0  0  0  0  0  0  0
   -7.5963  -11.8550    1.0528 C   0  0  0  0  0  0  0  0  0  0  0  0
   -7.9909  -11.6912   -0.2807 C   0  0  0  0  0  0  0  0  0  0  0  0
   -7.8091  -10.4836   -0.9578 C   0  0  0  0  0  0  0  0  0  0  0  0
   -8.2294  -10.2904   -2.3886 C   0  0  0  0  0  0  0  0  0  0  0  0
   -2.4894   -4.6122    1.5011 H   0  0  0  0  0  0  0  0  0  0  0  0
   -3.8673   -3.7479    2.2107 H   0  0  0  0  0  0  0  0  0  0  0  0
   -1.3968   -2.5313    0.8452 H   0  0  0  0  0  0  0  0  0  0  0  0
   -1.7772   -2.5273    2.5786 H   0  0  0  0  0  0  0  0  0  0  0  0
   -4.2852   -0.3296    0.0789 H   0  0  0  0  0  0  0  0  0  0  0  0
   -5.0739   -1.5386    1.1077 H   0  0  0  0  0  0  0  0  0  0  0  0
   -3.0786   -2.1233   -1.1611 H   0  0  0  0  0  0  0  0  0  0  0  0
   -4.8205   -2.4561   -1.2024 H   0  0  0  0  0  0  0  0  0  0  0  0
   -2.0956   -0.0443    4.4811 H   0  0  0  0  0  0  0  0  0  0  0  0
    0.0895   -0.0518    5.6843 H   0  0  0  0  0  0  0  0  0  0  0  0
    2.2194   -0.0375    4.3804 H   0  0  0  0  0  0  0  0  0  0  0  0
    2.1552    0.0433    1.8939 H   0  0  0  0  0  0  0  0  0  0  0  0
   -1.0486    0.8447   -0.1418 H   0  0  0  0  0  0  0  0  0  0  0  0
   -3.0936   -6.3680    0.3018 H   0  0  0  0  0  0  0  0  0  0  0  0
   -4.5255   -6.0154    1.2581 H   0  0  0  0  0  0  0  0  0  0  0  0
   -4.5865   -7.3351   -1.5270 H   0  0  0  0  0  0  0  0  0  0  0  0
   -4.6060   -8.2261    0.0073 H   0  0  0  0  0  0  0  0  0  0  0  0
   -6.7217   -6.2809   -1.0481 H   0  0  0  0  0  0  0  0  0  0  0  0
   -6.7671   -6.9451    0.6039 H   0  0  0  0  0  0  0  0  0  0  0  0
   -6.3457   -8.7390    1.6140 H   0  0  0  0  0  0  0  0  0  0  0  0
   -6.6910  -10.8944    2.7645 H   0  0  0  0  0  0  0  0  0  0  0  0
   -7.7491  -12.8112    1.5577 H   0  0  0  0  0  0  0  0  0  0  0  0
   -8.4546  -12.5250   -0.8151 H   0  0  0  0  0  0  0  0  0  0  0  0
   -8.6675  -11.2107   -2.8007 H   0  0  0  0  0  0  0  0  0  0  0  0
   -8.9688   -9.4779   -2.4784 H   0  0  0  0  0  0  0  0  0  0  0  0
   -7.3736   -9.9949   -3.0171 H   0  0  0  0  0  0  0  0  0  0  0  0
  1  2  2  0  0  0  0
  2  3  1  0  0  0  0
  2 18  1  0  0  0  0
  3  4  1  0  0  0  0
  4 29  1  0  0  0  0
  4  5  1  0  0  0  0
  4 30  1  0  0  0  0
  5 32  1  0  0  0  0
  6  5  1  0  0  0  0
  6  9  1  0  0  0  0
  7 34  1  0  0  0  0
  7  6  1  0  0  0  0
  8  3  1  0  0  0  0
  8  7  1  0  0  0  0
  9 11  1  0  0  0  0
 10  9  2  0  0  0  0
 11 12  2  0  0  0  0
 12 37  1  0  0  0  0
 12 13  1  0  0  0  0
 13 38  1  0  0  0  0
 14 39  1  0  0  0  0
 14 13  2  0  0  0  0
 15 14  1  0  0  0  0
 16 15  2  0  0  0  0
 16 11  1  0  0  0  0
 17 16  1  0  0  0  0
 18 42  1  0  0  0  0
 18 43  1  0  0  0  0
 19 20  1  0  0  0  0
 19 45  1  0  0  0  0
 19 18  1  0  0  0  0
 20 47  1  0  0  0  0
 21 20  1  0  0  0  0
 21 22  1  0  0  0  0
 22 23  2  0  0  0  0
 23 48  1  0  0  0  0
 23 24  1  0  0  0  0
 24 49  1  0  0  0  0
 25 50  1  0  0  0  0
 25 24  2  0  0  0  0
 26 25  1  0  0  0  0
 27 26  2  0  0  0  0
 27 22  1  0  0  0  0
 28 27  1  0  0  0  0
 31  5  1  0  0  0  0
 33  7  1  0  0  0  0
 35  8  1  0  0  0  0
 36  8  1  0  0  0  0
 40 15  1  0  0  0  0
 41 17  1  0  0  0  0
 44 19  1  0  0  0  0
 46 20  1  0  0  0  0
 51 26  1  0  0  0  0
 52 28  1  0  0  0  0
 53 28  1  0  0  0  0
 54 28  1  0  0  0  0
M  END
