187087833.xyz
 OpenBabel08132112083D
Fc1ccccc1C(=O)N1CCCN(CC1)C(=O)c1ccccc1S
 44 46  0  0  0  0  0  0  0  0999 V2000
    7.9514    1.3727    5.2398 F   0  0  0  0  0  0  0  0  0  0  0  0
    7.9898    2.6789    5.5593 C   0  0  0  0  0  0  0  0  0  0  0  0
    8.5325    3.0451    6.7877 C   0  0  0  0  0  0  0  0  0  0  0  0
    8.5809    4.3979    7.1287 C   0  0  0  0  0  0  0  0  0  0  0  0
    8.1016    5.3641    6.2377 C   0  0  0  0  0  0  0  0  0  0  0  0
    7.5751    4.9732    5.0071 C   0  0  0  0  0  0  0  0  0  0  0  0
    7.4853    3.6182    4.6546 C   0  0  0  0  0  0  0  0  0  0  0  0
    7.0036    3.2661    3.2695 C   0  0  0  0  0  0  0  0  0  0  0  0
    7.4919    3.8305    2.3008 O   0  0  0  0  0  0  0  0  0  0  0  0
    6.0227    2.3202    3.1276 N   0  0  0  0  0  0  0  0  0  0  0  0
    5.1792    1.8313    4.2107 C   0  0  0  0  0  0  0  0  0  0  0  0
    3.7546    2.3936    4.1718 C   0  0  0  0  0  0  0  0  0  0  0  0
    3.0696    2.2143    2.8098 C   0  0  0  0  0  0  0  0  0  0  0  0
    3.4167    0.9552    2.1592 N   0  0  0  0  0  0  0  0  0  0  0  0
    4.7587    0.7925    1.5775 C   0  0  0  0  0  0  0  0  0  0  0  0
    5.6774    1.9915    1.7394 C   0  0  0  0  0  0  0  0  0  0  0  0
    2.5357   -0.0558    1.8949 C   0  0  0  0  0  0  0  0  0  0  0  0
    2.8431   -0.9878    1.1564 O   0  0  0  0  0  0  0  0  0  0  0  0
    1.1824   -0.0000    2.5520 C   0  0  0  0  0  0  0  0  0  0  0  0
    1.0880   -0.0227    3.9507 C   0  0  0  0  0  0  0  0  0  0  0  0
   -0.1496    0.0044    4.5937 C   0  0  0  0  0  0  0  0  0  0  0  0
   -1.3165    0.0562    3.8267 C   0  0  0  0  0  0  0  0  0  0  0  0
   -1.2415    0.0445    2.4341 C   0  0  0  0  0  0  0  0  0  0  0  0
    0.0000   -0.0000    1.7803 C   0  0  0  0  0  0  0  0  0  0  0  0
    0.0000    0.0000    0.0000 S   0  0  0  0  0  0  0  0  0  0  0  0
    8.9136    2.2666    7.4508 H   0  0  0  0  0  0  0  0  0  0  0  0
    9.0036    4.6967    8.0906 H   0  0  0  0  0  0  0  0  0  0  0  0
    8.1504    6.4232    6.4984 H   0  0  0  0  0  0  0  0  0  0  0  0
    7.2287    5.7165    4.2866 H   0  0  0  0  0  0  0  0  0  0  0  0
    5.6411    2.0942    5.1662 H   0  0  0  0  0  0  0  0  0  0  0  0
    5.1464    0.7315    4.1766 H   0  0  0  0  0  0  0  0  0  0  0  0
    3.7696    3.4661    4.4261 H   0  0  0  0  0  0  0  0  0  0  0  0
    3.1700    1.8846    4.9555 H   0  0  0  0  0  0  0  0  0  0  0  0
    3.3491    3.0411    2.1393 H   0  0  0  0  0  0  0  0  0  0  0  0
    1.9805    2.2640    2.9168 H   0  0  0  0  0  0  0  0  0  0  0  0
    5.2215   -0.1127    2.0025 H   0  0  0  0  0  0  0  0  0  0  0  0
    4.6530    0.5885    0.5002 H   0  0  0  0  0  0  0  0  0  0  0  0
    6.6111    1.7738    1.2004 H   0  0  0  0  0  0  0  0  0  0  0  0
    5.2618    2.8805    1.2364 H   0  0  0  0  0  0  0  0  0  0  0  0
    2.0064   -0.0640    4.5403 H   0  0  0  0  0  0  0  0  0  0  0  0
   -0.2023   -0.0156    5.6842 H   0  0  0  0  0  0  0  0  0  0  0  0
   -2.2943    0.0837    4.3135 H   0  0  0  0  0  0  0  0  0  0  0  0
   -2.1554    0.0483    1.8360 H   0  0  0  0  0  0  0  0  0  0  0  0
    1.1670   -0.6774   -0.1221 H   0  0  0  0  0  0  0  0  0  0  0  0
  1  2  1  0  0  0  0
  2  3  2  0  0  0  0
  3  4  1  0  0  0  0
  3 26  1  0  0  0  0
  4 27  1  0  0  0  0
  5 28  1  0  0  0  0
  5  4  2  0  0  0  0
  6  5  1  0  0  0  0
  7  6  2  0  0  0  0
  7  2  1  0  0  0  0
  8  7  1  0  0  0  0
  9  8  2  0  0  0  0
 10  8  1  0  0  0  0
 10 11  1  0  0  0  0
 11 30  1  0  0  0  0
 12 11  1  0  0  0  0
 12 32  1  0  0  0  0
 12 33  1  0  0  0  0
 13 35  1  0  0  0  0
 13 12  1  0  0  0  0
 14 13  1  0  0  0  0
 15 16  1  0  0  0  0
 15 36  1  0  0  0  0
 15 14  1  0  0  0  0
 16 10  1  0  0  0  0
 17 14  1  0  0  0  0
 17 19  1  0  0  0  0
 18 17  2  0  0  0  0
 19 20  2  0  0  0  0
 20 40  1  0  0  0  0
 20 21  1  0  0  0  0
 21 41  1  0  0  0  0
 22 42  1  0  0  0  0
 22 21  2  0  0  0  0
 23 22  1  0  0  0  0
 24 23  2  0  0  0  0
 24 19  1  0  0  0  0
 25 24  1  0  0  0  0
 29  6  1  0  0  0  0
 31 11  1  0  0  0  0
 34 13  1  0  0  0  0
 37 15  1  0  0  0  0
 38 16  1  0  0  0  0
 39 16  1  0  0  0  0
 43 23  1  0  0  0  0
 44 25  1  0  0  0  0
M  END
