187120505.xyz
 OpenBabel08132112083D
COc1cc(ccc1OC)C(=O)N1CCC(CC1)NC(=O)c1ccccc1S
 52 54  0  0  0  0  0  0  0  0999 V2000
   -2.4680    1.9907   -8.0886 C   0  0  0  0  0  0  0  0  0  0  0  0
   -3.7994    2.4388   -7.9808 O   0  0  0  0  0  0  0  0  0  0  0  0
   -4.5189    2.0649   -6.8983 C   0  0  0  0  0  0  0  0  0  0  0  0
   -4.0386    1.2806   -5.8553 C   0  0  0  0  0  0  0  0  0  0  0  0
   -4.8553    0.9537   -4.7552 C   0  0  0  0  0  0  0  0  0  0  0  0
   -6.1794    1.3909   -4.7374 C   0  0  0  0  0  0  0  0  0  0  0  0
   -6.6827    2.1687   -5.7892 C   0  0  0  0  0  0  0  0  0  0  0  0
   -5.8671    2.5229   -6.8655 C   0  0  0  0  0  0  0  0  0  0  0  0
   -6.2559    3.2758   -7.9172 O   0  0  0  0  0  0  0  0  0  0  0  0
   -7.5803    3.7514   -7.9589 C   0  0  0  0  0  0  0  0  0  0  0  0
   -4.2702    0.0343   -3.7246 C   0  0  0  0  0  0  0  0  0  0  0  0
   -3.4950   -0.8568   -4.0534 O   0  0  0  0  0  0  0  0  0  0  0  0
   -4.6403    0.1877   -2.4080 N   0  0  0  0  0  0  0  0  0  0  0  0
   -4.1435   -0.8399   -1.4842 C   0  0  0  0  0  0  0  0  0  0  0  0
   -4.6930   -0.6017   -0.0868 C   0  0  0  0  0  0  0  0  0  0  0  0
   -4.2275    0.7568    0.4751 C   0  0  0  0  0  0  0  0  0  0  0  0
   -4.2763    1.8411   -0.6254 C   0  0  0  0  0  0  0  0  0  0  0  0
   -5.1452    1.4251   -1.8134 C   0  0  0  0  0  0  0  0  0  0  0  0
   -2.8745    0.6825    1.0086 N   0  0  0  0  0  0  0  0  0  0  0  0
   -2.5987    0.0536    2.1798 C   0  0  0  0  0  0  0  0  0  0  0  0
   -3.4782   -0.4199    2.8885 O   0  0  0  0  0  0  0  0  0  0  0  0
   -1.1498    0.0234    2.6238 C   0  0  0  0  0  0  0  0  0  0  0  0
   -0.9729   -0.0025    4.0170 C   0  0  0  0  0  0  0  0  0  0  0  0
    0.2932    0.0135    4.5961 C   0  0  0  0  0  0  0  0  0  0  0  0
    1.4240    0.0258    3.7770 C   0  0  0  0  0  0  0  0  0  0  0  0
    1.2740    0.0000    2.3909 C   0  0  0  0  0  0  0  0  0  0  0  0
    0.0000   -0.0000    1.8023 C   0  0  0  0  0  0  0  0  0  0  0  0
    0.0000    0.0000    0.0000 S   0  0  0  0  0  0  0  0  0  0  0  0
   -2.4081    0.8880   -8.1183 H   0  0  0  0  0  0  0  0  0  0  0  0
   -2.0765    2.3977   -9.0302 H   0  0  0  0  0  0  0  0  0  0  0  0
   -1.8445    2.3540   -7.2517 H   0  0  0  0  0  0  0  0  0  0  0  0
   -3.0260    0.8812   -5.8691 H   0  0  0  0  0  0  0  0  0  0  0  0
   -6.8456    1.1066   -3.9219 H   0  0  0  0  0  0  0  0  0  0  0  0
   -7.7234    2.4899   -5.7630 H   0  0  0  0  0  0  0  0  0  0  0  0
   -7.8081    4.4063   -7.0983 H   0  0  0  0  0  0  0  0  0  0  0  0
   -8.3127    2.9242   -7.9771 H   0  0  0  0  0  0  0  0  0  0  0  0
   -7.6751    4.3328   -8.8854 H   0  0  0  0  0  0  0  0  0  0  0  0
   -3.0376   -0.8312   -1.4733 H   0  0  0  0  0  0  0  0  0  0  0  0
   -4.4269   -1.8288   -1.8731 H   0  0  0  0  0  0  0  0  0  0  0  0
   -5.7944   -0.6270   -0.1119 H   0  0  0  0  0  0  0  0  0  0  0  0
   -4.3810   -1.4006    0.5992 H   0  0  0  0  0  0  0  0  0  0  0  0
   -4.8909    1.0195    1.3128 H   0  0  0  0  0  0  0  0  0  0  0  0
   -4.6337    2.7988   -0.2175 H   0  0  0  0  0  0  0  0  0  0  0  0
   -3.2579    2.0213   -1.0089 H   0  0  0  0  0  0  0  0  0  0  0  0
   -6.1960    1.3102   -1.4907 H   0  0  0  0  0  0  0  0  0  0  0  0
   -5.1313    2.2145   -2.5727 H   0  0  0  0  0  0  0  0  0  0  0  0
   -2.1027    1.0269    0.4452 H   0  0  0  0  0  0  0  0  0  0  0  0
   -1.8742   -0.0306    4.6313 H   0  0  0  0  0  0  0  0  0  0  0  0
    0.3971    0.0101    5.6834 H   0  0  0  0  0  0  0  0  0  0  0  0
    2.4259    0.0315    4.2127 H   0  0  0  0  0  0  0  0  0  0  0  0
    2.1529   -0.0401    1.7445 H   0  0  0  0  0  0  0  0  0  0  0  0
   -0.9029   -0.9913   -0.1848 H   0  0  0  0  0  0  0  0  0  0  0  0
  1  2  1  0  0  0  0
  1 31  1  0  0  0  0
  2  3  1  0  0  0  0
  3  8  2  0  0  0  0
  3  4  1  0  0  0  0
  4  5  2  0  0  0  0
  5  6  1  0  0  0  0
  5 11  1  0  0  0  0
  6 33  1  0  0  0  0
  7 34  1  0  0  0  0
  7  6  2  0  0  0  0
  8  7  1  0  0  0  0
  9  8  1  0  0  0  0
 10  9  1  0  0  0  0
 10 35  1  0  0  0  0
 11 13  1  0  0  0  0
 12 11  2  0  0  0  0
 13 18  1  0  0  0  0
 13 14  1  0  0  0  0
 14 38  1  0  0  0  0
 14 15  1  0  0  0  0
 15 16  1  0  0  0  0
 15 41  1  0  0  0  0
 16 19  1  0  0  0  0
 16 42  1  0  0  0  0
 17 43  1  0  0  0  0
 17 16  1  0  0  0  0
 18 45  1  0  0  0  0
 18 17  1  0  0  0  0
 19 20  1  0  0  0  0
 20 22  1  0  0  0  0
 20 21  2  0  0  0  0
 22 23  2  0  0  0  0
 23 24  1  0  0  0  0
 23 48  1  0  0  0  0
 24 49  1  0  0  0  0
 25 50  1  0  0  0  0
 25 24  2  0  0  0  0
 26 25  1  0  0  0  0
 27 26  2  0  0  0  0
 27 22  1  0  0  0  0
 28 27  1  0  0  0  0
 29  1  1  0  0  0  0
 30  1  1  0  0  0  0
 32  4  1  0  0  0  0
 36 10  1  0  0  0  0
 37 10  1  0  0  0  0
 39 14  1  0  0  0  0
 40 15  1  0  0  0  0
 44 17  1  0  0  0  0
 46 18  1  0  0  0  0
 47 19  1  0  0  0  0
 51 26  1  0  0  0  0
 52 28  1  0  0  0  0
M  END
