187423594.xyz
 OpenBabel08132112083D
O=C(N(c1ccccc1)Cc1ccccc1)Nc1ccccc1S
 42 44  0  0  0  0  0  0  0  0999 V2000
    3.9639    0.4118    3.4057 O   0  0  0  0  0  0  0  0  0  0  0  0
    3.7030    0.0848    2.2620 C   0  0  0  0  0  0  0  0  0  0  0  0
    4.6821   -0.1536    1.2905 N   0  0  0  0  0  0  0  0  0  0  0  0
    6.0467    0.1950    1.5191 C   0  0  0  0  0  0  0  0  0  0  0  0
    6.6642    0.0226    2.7694 C   0  0  0  0  0  0  0  0  0  0  0  0
    8.0107    0.3513    2.9327 C   0  0  0  0  0  0  0  0  0  0  0  0
    8.7675    0.8406    1.8650 C   0  0  0  0  0  0  0  0  0  0  0  0
    8.1583    1.0040    0.6195 C   0  0  0  0  0  0  0  0  0  0  0  0
    6.8092    0.6906    0.4467 C   0  0  0  0  0  0  0  0  0  0  0  0
    4.3424   -0.7979    0.0254 C   0  0  0  0  0  0  0  0  0  0  0  0
    3.6668    0.0819   -1.0140 C   0  0  0  0  0  0  0  0  0  0  0  0
    3.6240    1.4751   -0.8903 C   0  0  0  0  0  0  0  0  0  0  0  0
    2.9648    2.2514   -1.8478 C   0  0  0  0  0  0  0  0  0  0  0  0
    2.3469    1.6438   -2.9417 C   0  0  0  0  0  0  0  0  0  0  0  0
    2.3908    0.2523   -3.0757 C   0  0  0  0  0  0  0  0  0  0  0  0
    3.0432   -0.5212   -2.1159 C   0  0  0  0  0  0  0  0  0  0  0  0
    2.4098   -0.0958    1.7926 N   0  0  0  0  0  0  0  0  0  0  0  0
    1.2213   -0.0000    2.5220 C   0  0  0  0  0  0  0  0  0  0  0  0
    1.1713    0.0679    3.9265 C   0  0  0  0  0  0  0  0  0  0  0  0
   -0.0569    0.1409    4.5822 C   0  0  0  0  0  0  0  0  0  0  0  0
   -1.2584    0.1502    3.8698 C   0  0  0  0  0  0  0  0  0  0  0  0
   -1.2201    0.0797    2.4773 C   0  0  0  0  0  0  0  0  0  0  0  0
   -0.0000   -0.0000    1.7986 C   0  0  0  0  0  0  0  0  0  0  0  0
    0.0000    0.0000    0.0000 S   0  0  0  0  0  0  0  0  0  0  0  0
    6.0840   -0.3558    3.6060 H   0  0  0  0  0  0  0  0  0  0  0  0
    8.4745    0.2121    3.9124 H   0  0  0  0  0  0  0  0  0  0  0  0
    9.8216    1.0916    2.0025 H   0  0  0  0  0  0  0  0  0  0  0  0
    8.7308    1.3890   -0.2279 H   0  0  0  0  0  0  0  0  0  0  0  0
    6.3451    0.8483   -0.5277 H   0  0  0  0  0  0  0  0  0  0  0  0
    3.6946   -1.6656    0.2340 H   0  0  0  0  0  0  0  0  0  0  0  0
    5.2738   -1.2109   -0.3879 H   0  0  0  0  0  0  0  0  0  0  0  0
    4.0930    1.9533   -0.0282 H   0  0  0  0  0  0  0  0  0  0  0  0
    2.9307    3.3372   -1.7322 H   0  0  0  0  0  0  0  0  0  0  0  0
    1.8264    2.2505   -3.6862 H   0  0  0  0  0  0  0  0  0  0  0  0
    1.9058   -0.2316   -3.9269 H   0  0  0  0  0  0  0  0  0  0  0  0
    3.0606   -1.6107   -2.2155 H   0  0  0  0  0  0  0  0  0  0  0  0
    2.2518   -0.0481    0.7873 H   0  0  0  0  0  0  0  0  0  0  0  0
    2.1051    0.0815    4.4817 H   0  0  0  0  0  0  0  0  0  0  0  0
   -0.0686    0.1960    5.6736 H   0  0  0  0  0  0  0  0  0  0  0  0
   -2.2162    0.2122    4.3905 H   0  0  0  0  0  0  0  0  0  0  0  0
   -2.1422    0.0846    1.8930 H   0  0  0  0  0  0  0  0  0  0  0  0
    0.2354   -1.3238   -0.1832 H   0  0  0  0  0  0  0  0  0  0  0  0
  2  1  2  0  0  0  0
  3  4  1  0  0  0  0
  3  2  1  0  0  0  0
  4  5  2  0  0  0  0
  5  6  1  0  0  0  0
  5 25  1  0  0  0  0
  6 26  1  0  0  0  0
  7 27  1  0  0  0  0
  7  6  2  0  0  0  0
  8  7  1  0  0  0  0
  9  8  2  0  0  0  0
  9  4  1  0  0  0  0
 10 30  1  0  0  0  0
 10  3  1  0  0  0  0
 11 12  1  0  0  0  0
 11 10  1  0  0  0  0
 12 32  1  0  0  0  0
 13 33  1  0  0  0  0
 13 12  2  0  0  0  0
 14 13  1  0  0  0  0
 15 14  2  0  0  0  0
 15 16  1  0  0  0  0
 16 11  2  0  0  0  0
 17  2  1  0  0  0  0
 17 18  1  0  0  0  0
 18 19  2  0  0  0  0
 19 38  1  0  0  0  0
 19 20  1  0  0  0  0
 20 39  1  0  0  0  0
 21 40  1  0  0  0  0
 21 20  2  0  0  0  0
 22 21  1  0  0  0  0
 23 22  2  0  0  0  0
 23 18  1  0  0  0  0
 24 23  1  0  0  0  0
 28  8  1  0  0  0  0
 29  9  1  0  0  0  0
 31 10  1  0  0  0  0
 34 14  1  0  0  0  0
 35 15  1  0  0  0  0
 36 16  1  0  0  0  0
 37 17  1  0  0  0  0
 41 22  1  0  0  0  0
 42 24  1  0  0  0  0
M  END
