187423422.xyz
 OpenBabel08132112083D
CCCCN(C(=O)Nc1ccccc1S)CCC
 40 40  0  0  0  0  0  0  0  0999 V2000
    8.4865    0.3207    3.6281 C   0  0  0  0  0  0  0  0  0  0  0  0
    8.2025    1.0936    2.3385 C   0  0  0  0  0  0  0  0  0  0  0  0
    6.7167    1.1905    1.9767 C   0  0  0  0  0  0  0  0  0  0  0  0
    6.0658   -0.1607    1.6700 C   0  0  0  0  0  0  0  0  0  0  0  0
    4.6706   -0.0427    1.2609 N   0  0  0  0  0  0  0  0  0  0  0  0
    3.7140   -0.0973    2.2538 C   0  0  0  0  0  0  0  0  0  0  0  0
    4.0065   -0.2064    3.4366 O   0  0  0  0  0  0  0  0  0  0  0  0
    2.4067   -0.0284    1.7899 N   0  0  0  0  0  0  0  0  0  0  0  0
    1.2234    0.0000    2.5216 C   0  0  0  0  0  0  0  0  0  0  0  0
    1.1752    0.0306    3.9283 C   0  0  0  0  0  0  0  0  0  0  0  0
   -0.0530    0.0777    4.5853 C   0  0  0  0  0  0  0  0  0  0  0  0
   -1.2566    0.0956    3.8749 C   0  0  0  0  0  0  0  0  0  0  0  0
   -1.2205    0.0572    2.4811 C   0  0  0  0  0  0  0  0  0  0  0  0
   -0.0000    0.0000    1.8012 C   0  0  0  0  0  0  0  0  0  0  0  0
    0.0000    0.0000    0.0000 S   0  0  0  0  0  0  0  0  0  0  0  0
    4.3752    0.1614   -0.1486 C   0  0  0  0  0  0  0  0  0  0  0  0
    4.0113   -1.1216   -0.9069 C   0  0  0  0  0  0  0  0  0  0  0  0
    3.6389   -0.8525   -2.3625 C   0  0  0  0  0  0  0  0  0  0  0  0
    7.9326    0.7525    4.4779 H   0  0  0  0  0  0  0  0  0  0  0  0
    9.5589    0.3436    3.8785 H   0  0  0  0  0  0  0  0  0  0  0  0
    8.1909   -0.7374    3.5496 H   0  0  0  0  0  0  0  0  0  0  0  0
    8.7530    0.6287    1.4995 H   0  0  0  0  0  0  0  0  0  0  0  0
    8.6080    2.1155    2.4321 H   0  0  0  0  0  0  0  0  0  0  0  0
    6.1572    1.6557    2.8058 H   0  0  0  0  0  0  0  0  0  0  0  0
    6.5959    1.8533    1.1016 H   0  0  0  0  0  0  0  0  0  0  0  0
    6.0975   -0.8027    2.5590 H   0  0  0  0  0  0  0  0  0  0  0  0
    6.6176   -0.6765    0.8655 H   0  0  0  0  0  0  0  0  0  0  0  0
    2.2468    0.0258    0.7894 H   0  0  0  0  0  0  0  0  0  0  0  0
    2.1139    0.0137    4.4764 H   0  0  0  0  0  0  0  0  0  0  0  0
   -0.0647    0.1029    5.6779 H   0  0  0  0  0  0  0  0  0  0  0  0
   -2.2139    0.1366    4.3984 H   0  0  0  0  0  0  0  0  0  0  0  0
   -2.1438    0.0663    1.8987 H   0  0  0  0  0  0  0  0  0  0  0  0
    0.1544   -1.3364   -0.1813 H   0  0  0  0  0  0  0  0  0  0  0  0
    3.5706    0.9087   -0.2639 H   0  0  0  0  0  0  0  0  0  0  0  0
    5.2598    0.6246   -0.6137 H   0  0  0  0  0  0  0  0  0  0  0  0
    4.8615   -1.8220   -0.8452 H   0  0  0  0  0  0  0  0  0  0  0  0
    3.1725   -1.6181   -0.3904 H   0  0  0  0  0  0  0  0  0  0  0  0
    2.7548   -0.1968   -2.4279 H   0  0  0  0  0  0  0  0  0  0  0  0
    4.4617   -0.3565   -2.9039 H   0  0  0  0  0  0  0  0  0  0  0  0
    3.4036   -1.7854   -2.8972 H   0  0  0  0  0  0  0  0  0  0  0  0
  1 20  1  0  0  0  0
  1 19  1  0  0  0  0
  2 23  1  0  0  0  0
  2  1  1  0  0  0  0
  3  2  1  0  0  0  0
  3 24  1  0  0  0  0
  4  3  1  0  0  0  0
  4 26  1  0  0  0  0
  5  4  1  0  0  0  0
  5  6  1  0  0  0  0
  6  7  2  0  0  0  0
  8  6  1  0  0  0  0
  8  9  1  0  0  0  0
  9 10  2  0  0  0  0
 10 29  1  0  0  0  0
 10 11  1  0  0  0  0
 11 30  1  0  0  0  0
 12 31  1  0  0  0  0
 12 11  2  0  0  0  0
 13 12  1  0  0  0  0
 14 13  2  0  0  0  0
 14  9  1  0  0  0  0
 15 14  1  0  0  0  0
 16  5  1  0  0  0  0
 17 36  1  0  0  0  0
 17 37  1  0  0  0  0
 17 16  1  0  0  0  0
 18 17  1  0  0  0  0
 21  1  1  0  0  0  0
 22  2  1  0  0  0  0
 25  3  1  0  0  0  0
 27  4  1  0  0  0  0
 28  8  1  0  0  0  0
 32 13  1  0  0  0  0
 33 15  1  0  0  0  0
 34 16  1  0  0  0  0
 35 16  1  0  0  0  0
 38 18  1  0  0  0  0
 39 18  1  0  0  0  0
 40 18  1  0  0  0  0
M  END
