187423268.xyz
 OpenBabel08132112083D
O=C(Nc1ccccc1S)Nc1ccc(c(c1)[N+](=O)[O-])Cl
 31 32  0  0  0  0  0  0  0  0999 V2000
   -4.3060   -1.1465    1.1740 O   0  0  0  0  0  0  0  0  0  0  0  0
   -3.1118   -1.1613    1.4053 C   0  0  0  0  0  0  0  0  0  0  0  0
   -2.4645   -0.0348    1.9201 N   0  0  0  0  0  0  0  0  0  0  0  0
   -1.1866   -0.0202    2.5460 C   0  0  0  0  0  0  0  0  0  0  0  0
   -1.0976   -0.0045    3.9457 C   0  0  0  0  0  0  0  0  0  0  0  0
    0.1380    0.0142    4.5891 C   0  0  0  0  0  0  0  0  0  0  0  0
    1.3103    0.0044    3.8265 C   0  0  0  0  0  0  0  0  0  0  0  0
    1.2412    0.0000    2.4352 C   0  0  0  0  0  0  0  0  0  0  0  0
    0.0000    0.0000    1.7769 C   0  0  0  0  0  0  0  0  0  0  0  0
    0.0000    0.0000    0.0000 S   0  0  0  0  0  0  0  0  0  0  0  0
   -2.2758   -2.2341    1.1793 N   0  0  0  0  0  0  0  0  0  0  0  0
   -2.6018   -3.4557    0.5833 C   0  0  0  0  0  0  0  0  0  0  0  0
   -3.9147   -3.8436    0.2550 C   0  0  0  0  0  0  0  0  0  0  0  0
   -4.1455   -5.0876   -0.3243 C   0  0  0  0  0  0  0  0  0  0  0  0
   -3.1030   -5.9753   -0.6158 C   0  0  0  0  0  0  0  0  0  0  0  0
   -1.7971   -5.5748   -0.2912 C   0  0  0  0  0  0  0  0  0  0  0  0
   -1.5529   -4.3414    0.3094 C   0  0  0  0  0  0  0  0  0  0  0  0
   -0.6092   -6.4082   -0.5645 N   0  0  0  0  0  0  0  0  0  0  0  0
   -0.6364   -7.1392   -1.5357 O   0  0  0  0  0  0  0  0  0  0  0  0
    0.3379   -6.2822    0.1978 O   0  0  0  0  0  0  0  0  0  0  0  0
   -3.5049   -7.5234   -1.2884 Cl  0  0  0  0  0  0  0  0  0  0  0  0
   -3.1413    0.6511    2.2411 H   0  0  0  0  0  0  0  0  0  0  0  0
   -2.0241   -0.0191    4.5245 H   0  0  0  0  0  0  0  0  0  0  0  0
    0.1862    0.0254    5.6797 H   0  0  0  0  0  0  0  0  0  0  0  0
    2.2861    0.0111    4.3170 H   0  0  0  0  0  0  0  0  0  0  0  0
    2.1582    0.0188    1.8421 H   0  0  0  0  0  0  0  0  0  0  0  0
   -1.2954    0.3709   -0.1247 H   0  0  0  0  0  0  0  0  0  0  0  0
   -1.2893   -2.0923    1.3639 H   0  0  0  0  0  0  0  0  0  0  0  0
   -4.7376   -3.1638    0.4608 H   0  0  0  0  0  0  0  0  0  0  0  0
   -5.1656   -5.3943   -0.5597 H   0  0  0  0  0  0  0  0  0  0  0  0
   -0.5211   -4.0902    0.5565 H   0  0  0  0  0  0  0  0  0  0  0  0
  1  2  2  0  0  0  0
  2  3  1  0  0  0  0
  3 22  1  0  0  0  0
  3  4  1  0  0  0  0
  4  5  2  0  0  0  0
  5 23  1  0  0  0  0
  5  6  1  0  0  0  0
  6 24  1  0  0  0  0
  7 25  1  0  0  0  0
  7  6  2  0  0  0  0
  8  7  1  0  0  0  0
  9  8  2  0  0  0  0
  9  4  1  0  0  0  0
 10  9  1  0  0  0  0
 11 28  1  0  0  0  0
 11  2  1  0  0  0  0
 12 11  1  0  0  0  0
 13 29  1  0  0  0  0
 13 12  2  0  0  0  0
 14 13  1  0  0  0  0
 15 14  2  0  0  0  0
 15 16  1  0  0  0  0
 16 17  2  0  0  0  0
 17 31  1  0  0  0  0
 17 12  1  0  0  0  0
 18 16  1  0  0  0  0
 18 20  2  0  0  0  0
 19 18  2  0  0  0  0
 21 15  1  0  0  0  0
 26  8  1  0  0  0  0
 27 10  1  0  0  0  0
 30 14  1  0  0  0  0
M  END
