187423449.xyz
 OpenBabel08132112083D
O=C(Nc1ccccc1S)NC1CC(C)(C)NC(C1)(C)C
 46 47  0  0  0  0  0  0  0  0999 V2000
    4.0178   -0.0530    3.4610 O   0  0  0  0  0  0  0  0  0  0  0  0
    3.7158   -0.0545    2.2780 C   0  0  0  0  0  0  0  0  0  0  0  0
    2.4123   -0.0421    1.7997 N   0  0  0  0  0  0  0  0  0  0  0  0
    1.2220   -0.0000    2.5220 C   0  0  0  0  0  0  0  0  0  0  0  0
    1.1712    0.0373    3.9289 C   0  0  0  0  0  0  0  0  0  0  0  0
   -0.0575    0.0856    4.5845 C   0  0  0  0  0  0  0  0  0  0  0  0
   -1.2601    0.1004    3.8725 C   0  0  0  0  0  0  0  0  0  0  0  0
   -1.2211    0.0589    2.4792 C   0  0  0  0  0  0  0  0  0  0  0  0
    0.0000   -0.0000    1.7999 C   0  0  0  0  0  0  0  0  0  0  0  0
    0.0000    0.0000    0.0000 S   0  0  0  0  0  0  0  0  0  0  0  0
    4.6549   -0.0486    1.2720 N   0  0  0  0  0  0  0  0  0  0  0  0
    6.0673   -0.2156    1.5798 C   0  0  0  0  0  0  0  0  0  0  0  0
    6.9234    0.4427    0.5011 C   0  0  0  0  0  0  0  0  0  0  0  0
    8.4320    0.3099    0.7810 C   0  0  0  0  0  0  0  0  0  0  0  0
    9.2133    0.6746   -0.4903 C   0  0  0  0  0  0  0  0  0  0  0  0
    8.8585    1.2859    1.9028 C   0  0  0  0  0  0  0  0  0  0  0  0
    8.7219   -1.1025    1.0557 N   0  0  0  0  0  0  0  0  0  0  0  0
    7.9534   -1.8805    2.0369 C   0  0  0  0  0  0  0  0  0  0  0  0
    6.4573   -1.6894    1.7289 C   0  0  0  0  0  0  0  0  0  0  0  0
    8.3311   -3.3524    1.8135 C   0  0  0  0  0  0  0  0  0  0  0  0
    8.2482   -1.5280    3.5137 C   0  0  0  0  0  0  0  0  0  0  0  0
    2.2699    0.0353    0.7947 H   0  0  0  0  0  0  0  0  0  0  0  0
    2.1085    0.0324    4.4795 H   0  0  0  0  0  0  0  0  0  0  0  0
   -0.0701    0.1161    5.6769 H   0  0  0  0  0  0  0  0  0  0  0  0
   -2.2182    0.1434    4.3943 H   0  0  0  0  0  0  0  0  0  0  0  0
   -2.1433    0.0679    1.8951 H   0  0  0  0  0  0  0  0  0  0  0  0
    0.1450   -1.3382   -0.1782 H   0  0  0  0  0  0  0  0  0  0  0  0
    4.3634   -0.2701    0.3263 H   0  0  0  0  0  0  0  0  0  0  0  0
    6.2160    0.2920    2.5422 H   0  0  0  0  0  0  0  0  0  0  0  0
    6.6528    1.5056    0.4018 H   0  0  0  0  0  0  0  0  0  0  0  0
    6.7068   -0.0460   -0.4656 H   0  0  0  0  0  0  0  0  0  0  0  0
    8.9592   -0.0207   -1.3035 H   0  0  0  0  0  0  0  0  0  0  0  0
    8.9907    1.7037   -0.8129 H   0  0  0  0  0  0  0  0  0  0  0  0
   10.2994    0.6077   -0.3110 H   0  0  0  0  0  0  0  0  0  0  0  0
    9.9072    1.1035    2.1871 H   0  0  0  0  0  0  0  0  0  0  0  0
    8.7784    2.3300    1.5606 H   0  0  0  0  0  0  0  0  0  0  0  0
    8.2454    1.1877    2.8074 H   0  0  0  0  0  0  0  0  0  0  0  0
    9.7210   -1.2381    1.1985 H   0  0  0  0  0  0  0  0  0  0  0  0
    5.8516   -2.1500    2.5241 H   0  0  0  0  0  0  0  0  0  0  0  0
    6.2215   -2.2057    0.7822 H   0  0  0  0  0  0  0  0  0  0  0  0
    8.1676   -3.6300    0.7621 H   0  0  0  0  0  0  0  0  0  0  0  0
    9.3951   -3.5217    2.0503 H   0  0  0  0  0  0  0  0  0  0  0  0
    7.7353   -4.0168    2.4584 H   0  0  0  0  0  0  0  0  0  0  0  0
    7.8628   -0.5421    3.8028 H   0  0  0  0  0  0  0  0  0  0  0  0
    7.7870   -2.2676    4.1869 H   0  0  0  0  0  0  0  0  0  0  0  0
    9.3346   -1.5335    3.6974 H   0  0  0  0  0  0  0  0  0  0  0  0
  2  1  2  0  0  0  0
  3  2  1  0  0  0  0
  3  4  1  0  0  0  0
  4  5  2  0  0  0  0
  5 23  1  0  0  0  0
  5  6  1  0  0  0  0
  6 24  1  0  0  0  0
  7 25  1  0  0  0  0
  7  6  2  0  0  0  0
  8  7  1  0  0  0  0
  9  8  2  0  0  0  0
  9  4  1  0  0  0  0
 10  9  1  0  0  0  0
 11 12  1  0  0  0  0
 11  2  1  0  0  0  0
 12 19  1  0  0  0  0
 12 29  1  0  0  0  0
 13 14  1  0  0  0  0
 13 12  1  0  0  0  0
 14 17  1  0  0  0  0
 14 16  1  0  0  0  0
 15 34  1  0  0  0  0
 15 14  1  0  0  0  0
 16 35  1  0  0  0  0
 16 37  1  0  0  0  0
 17 38  1  0  0  0  0
 17 18  1  0  0  0  0
 18 21  1  0  0  0  0
 19 18  1  0  0  0  0
 19 39  1  0  0  0  0
 20 18  1  0  0  0  0
 20 42  1  0  0  0  0
 20 43  1  0  0  0  0
 21 46  1  0  0  0  0
 21 44  1  0  0  0  0
 21 45  1  0  0  0  0
 22  3  1  0  0  0  0
 26  8  1  0  0  0  0
 27 10  1  0  0  0  0
 28 11  1  0  0  0  0
 30 13  1  0  0  0  0
 31 13  1  0  0  0  0
 32 15  1  0  0  0  0
 33 15  1  0  0  0  0
 36 16  1  0  0  0  0
 40 19  1  0  0  0  0
 41 20  1  0  0  0  0
M  END
