187573250.xyz
 OpenBabel08132112083D
CCOC(=O)Oc1ccc(cc1)C(=O)Nc1cccc(c1)CNC(=O)c1ccccc1S
 54 56  0  0  0  0  0  0  0  0999 V2000
   -6.3696  -14.3900   -6.7905 C   0  0  0  0  0  0  0  0  0  0  0  0
   -5.4218  -13.3240   -6.2885 C   0  0  0  0  0  0  0  0  0  0  0  0
   -6.1949  -12.3690   -5.5375 O   0  0  0  0  0  0  0  0  0  0  0  0
   -5.5179  -11.3463   -5.0272 C   0  0  0  0  0  0  0  0  0  0  0  0
   -4.3370  -11.1502   -5.1331 O   0  0  0  0  0  0  0  0  0  0  0  0
   -6.4074  -10.5746   -4.3627 O   0  0  0  0  0  0  0  0  0  0  0  0
   -6.0372   -9.3984   -3.7387 C   0  0  0  0  0  0  0  0  0  0  0  0
   -6.7513   -9.0883   -2.5786 C   0  0  0  0  0  0  0  0  0  0  0  0
   -6.4920   -7.8952   -1.9079 C   0  0  0  0  0  0  0  0  0  0  0  0
   -5.5177   -7.0048   -2.3853 C   0  0  0  0  0  0  0  0  0  0  0  0
   -4.8324   -7.3257   -3.5661 C   0  0  0  0  0  0  0  0  0  0  0  0
   -5.0763   -8.5167   -4.2456 C   0  0  0  0  0  0  0  0  0  0  0  0
   -5.1886   -5.6908   -1.7334 C   0  0  0  0  0  0  0  0  0  0  0  0
   -4.6622   -4.7856   -2.3610 O   0  0  0  0  0  0  0  0  0  0  0  0
   -5.5112   -5.6122   -0.3982 N   0  0  0  0  0  0  0  0  0  0  0  0
   -5.3706   -4.5255    0.4823 C   0  0  0  0  0  0  0  0  0  0  0  0
   -5.7309   -4.7264    1.8253 C   0  0  0  0  0  0  0  0  0  0  0  0
   -5.6220   -3.6848    2.7458 C   0  0  0  0  0  0  0  0  0  0  0  0
   -5.1571   -2.4312    2.3468 C   0  0  0  0  0  0  0  0  0  0  0  0
   -4.7952   -2.2237    1.0071 C   0  0  0  0  0  0  0  0  0  0  0  0
   -4.8995   -3.2642    0.0785 C   0  0  0  0  0  0  0  0  0  0  0  0
   -4.2482   -0.8795    0.5699 C   0  0  0  0  0  0  0  0  0  0  0  0
   -2.8767   -0.6556    1.0052 N   0  0  0  0  0  0  0  0  0  0  0  0
   -2.5947   -0.0588    2.1967 C   0  0  0  0  0  0  0  0  0  0  0  0
   -3.4697    0.3935    2.9248 O   0  0  0  0  0  0  0  0  0  0  0  0
   -1.1439   -0.0194    2.6257 C   0  0  0  0  0  0  0  0  0  0  0  0
   -0.9562    0.0087    4.0185 C   0  0  0  0  0  0  0  0  0  0  0  0
    0.3126   -0.0070    4.5899 C   0  0  0  0  0  0  0  0  0  0  0  0
    1.4372   -0.0224    3.7615 C   0  0  0  0  0  0  0  0  0  0  0  0
    1.2782    0.0000    2.3774 C   0  0  0  0  0  0  0  0  0  0  0  0
    0.0000   -0.0000    1.7951 C   0  0  0  0  0  0  0  0  0  0  0  0
    0.0000    0.0000    0.0000 S   0  0  0  0  0  0  0  0  0  0  0  0
   -6.8677  -14.8993   -5.9517 H   0  0  0  0  0  0  0  0  0  0  0  0
   -7.1439  -13.9532   -7.4392 H   0  0  0  0  0  0  0  0  0  0  0  0
   -5.8123  -15.1407   -7.3714 H   0  0  0  0  0  0  0  0  0  0  0  0
   -4.6389  -13.7393   -5.6340 H   0  0  0  0  0  0  0  0  0  0  0  0
   -4.9134  -12.7986   -7.1126 H   0  0  0  0  0  0  0  0  0  0  0  0
   -7.5134   -9.7851   -2.2269 H   0  0  0  0  0  0  0  0  0  0  0  0
   -7.0871   -7.6550   -1.0237 H   0  0  0  0  0  0  0  0  0  0  0  0
   -4.0991   -6.6123   -3.9449 H   0  0  0  0  0  0  0  0  0  0  0  0
   -4.5237   -8.7632   -5.1492 H   0  0  0  0  0  0  0  0  0  0  0  0
   -5.8309   -6.4693    0.0342 H   0  0  0  0  0  0  0  0  0  0  0  0
   -6.1008   -5.7047    2.1463 H   0  0  0  0  0  0  0  0  0  0  0  0
   -5.9087   -3.8561    3.7862 H   0  0  0  0  0  0  0  0  0  0  0  0
   -5.0644   -1.6102    3.0601 H   0  0  0  0  0  0  0  0  0  0  0  0
   -4.6164   -3.1164   -0.9610 H   0  0  0  0  0  0  0  0  0  0  0  0
   -4.8516   -0.0680    0.9980 H   0  0  0  0  0  0  0  0  0  0  0  0
   -4.2821   -0.7989   -0.5269 H   0  0  0  0  0  0  0  0  0  0  0  0
   -2.1334   -1.1488    0.5200 H   0  0  0  0  0  0  0  0  0  0  0  0
   -1.8533    0.0366    4.6384 H   0  0  0  0  0  0  0  0  0  0  0  0
    0.4241   -0.0015    5.6763 H   0  0  0  0  0  0  0  0  0  0  0  0
    2.4424   -0.0283    4.1896 H   0  0  0  0  0  0  0  0  0  0  0  0
    2.1545    0.0384    1.7268 H   0  0  0  0  0  0  0  0  0  0  0  0
   -1.0867    0.7841   -0.1797 H   0  0  0  0  0  0  0  0  0  0  0  0
  1  2  1  0  0  0  0
  1 33  1  0  0  0  0
  2 36  1  0  0  0  0
  2  3  1  0  0  0  0
  3  4  1  0  0  0  0
  4  6  1  0  0  0  0
  5  4  2  0  0  0  0
  6  7  1  0  0  0  0
  7  8  1  0  0  0  0
  8 38  1  0  0  0  0
  8  9  2  0  0  0  0
  9 39  1  0  0  0  0
 10  9  1  0  0  0  0
 10 13  1  0  0  0  0
 11 10  2  0  0  0  0
 12  7  2  0  0  0  0
 12 11  1  0  0  0  0
 13 15  1  0  0  0  0
 14 13  2  0  0  0  0
 15 42  1  0  0  0  0
 15 16  1  0  0  0  0
 16 17  1  0  0  0  0
 17 43  1  0  0  0  0
 17 18  2  0  0  0  0
 18 44  1  0  0  0  0
 19 18  1  0  0  0  0
 19 45  1  0  0  0  0
 20 19  2  0  0  0  0
 21 16  2  0  0  0  0
 21 20  1  0  0  0  0
 22 47  1  0  0  0  0
 22 23  1  0  0  0  0
 22 20  1  0  0  0  0
 23 24  1  0  0  0  0
 24 26  1  0  0  0  0
 24 25  2  0  0  0  0
 26 27  2  0  0  0  0
 27 28  1  0  0  0  0
 27 50  1  0  0  0  0
 28 51  1  0  0  0  0
 29 52  1  0  0  0  0
 29 28  2  0  0  0  0
 30 29  1  0  0  0  0
 31 30  2  0  0  0  0
 31 26  1  0  0  0  0
 32 31  1  0  0  0  0
 34  1  1  0  0  0  0
 35  1  1  0  0  0  0
 37  2  1  0  0  0  0
 40 11  1  0  0  0  0
 41 12  1  0  0  0  0
 46 21  1  0  0  0  0
 48 22  1  0  0  0  0
 49 23  1  0  0  0  0
 53 30  1  0  0  0  0
 54 32  1  0  0  0  0
M  END
