191201244.xyz
 OpenBabel08132112083D
Brc1ccc(c(c1)S)OC(F)(F)F
 17 17  0  0  0  0  0  0  0  0999 V2000
    2.9595   -0.0252    4.7146 Br  0  0  0  0  0  0  0  0  0  0  0  0
    1.2727   -0.0174    3.8333 C   0  0  0  0  0  0  0  0  0  0  0  0
    0.1005   -0.0167    4.5947 C   0  0  0  0  0  0  0  0  0  0  0  0
   -1.1274   -0.0055    3.9339 C   0  0  0  0  0  0  0  0  0  0  0  0
   -1.1747   -0.0126    2.5413 C   0  0  0  0  0  0  0  0  0  0  0  0
   -0.0000   -0.0000    1.7704 C   0  0  0  0  0  0  0  0  0  0  0  0
    1.2344   -0.0000    2.4397 C   0  0  0  0  0  0  0  0  0  0  0  0
    0.0000    0.0000    0.0000 S   0  0  0  0  0  0  0  0  0  0  0  0
   -2.4032    0.0342    1.8803 O   0  0  0  0  0  0  0  0  0  0  0  0
   -3.1763   -1.0808    1.8747 C   0  0  0  0  0  0  0  0  0  0  0  0
   -3.6801   -1.3526    3.0880 F   0  0  0  0  0  0  0  0  0  0  0  0
   -2.5000   -2.1610    1.4732 F   0  0  0  0  0  0  0  0  0  0  0  0
   -4.1830   -0.8649    1.0397 F   0  0  0  0  0  0  0  0  0  0  0  0
    0.1455   -0.0174    5.6837 H   0  0  0  0  0  0  0  0  0  0  0  0
   -2.0617    0.0059    4.4956 H   0  0  0  0  0  0  0  0  0  0  0  0
    2.1623    0.0168    1.8665 H   0  0  0  0  0  0  0  0  0  0  0  0
   -1.3200    0.2467   -0.1410 H   0  0  0  0  0  0  0  0  0  0  0  0
  2  3  2  0  0  0  0
  2  1  1  0  0  0  0
  3 14  1  0  0  0  0
  4 15  1  0  0  0  0
  4  3  1  0  0  0  0
  5  4  2  0  0  0  0
  6  7  2  0  0  0  0
  6  5  1  0  0  0  0
  7  2  1  0  0  0  0
  8  6  1  0  0  0  0
  9  5  1  0  0  0  0
 10  9  1  0  0  0  0
 10 11  1  0  0  0  0
 12 10  1  0  0  0  0
 13 10  1  0  0  0  0
 16  7  1  0  0  0  0
 17  8  1  0  0  0  0
M  END
