19552-08-0.xyz
 OpenBabel05112214453D

 24 26  0  0  0  0  0  0  0  0999 V2000
    0.0000    0.0000    0.0000 S   0  0  0  0  0  0  0  0  0  0  0  0
   -0.0000   -0.0000    1.8525 C   0  0  0  0  0  0  0  0  0  0  0  0
    1.4282   -0.0000    2.3609 C   0  0  0  0  0  0  0  0  0  0  0  0
   -0.5837    1.2456    2.4867 C   0  0  0  0  0  0  0  0  0  0  0  0
    1.6392    1.1113    3.2059 C   0  0  0  0  0  0  0  0  0  0  0  0
    0.3909    1.8836    3.2851 C   0  0  0  0  0  0  0  0  0  0  0  0
    2.4541   -0.9018    2.0982 C   0  0  0  0  0  0  0  0  0  0  0  0
   -1.8662    1.7725    2.3790 C   0  0  0  0  0  0  0  0  0  0  0  0
    2.8858    1.3144    3.8030 C   0  0  0  0  0  0  0  0  0  0  0  0
    0.0786    3.0539    3.9815 C   0  0  0  0  0  0  0  0  0  0  0  0
    3.7038   -0.6939    2.6972 C   0  0  0  0  0  0  0  0  0  0  0  0
   -2.1779    2.9459    3.0782 C   0  0  0  0  0  0  0  0  0  0  0  0
    3.9150    0.4035    3.5421 C   0  0  0  0  0  0  0  0  0  0  0  0
   -1.2129    3.5796    3.8721 C   0  0  0  0  0  0  0  0  0  0  0  0
   -0.5350   -0.9058    2.1806 H   0  0  0  0  0  0  0  0  0  0  0  0
    2.2891   -1.7501    1.4299 H   0  0  0  0  0  0  0  0  0  0  0  0
   -2.6194    1.2874    1.7529 H   0  0  0  0  0  0  0  0  0  0  0  0
    3.0575    2.1700    4.4602 H   0  0  0  0  0  0  0  0  0  0  0  0
    0.8282    3.5522    4.6007 H   0  0  0  0  0  0  0  0  0  0  0  0
    4.5211   -1.3919    2.5017 H   0  0  0  0  0  0  0  0  0  0  0  0
   -3.1809    3.3721    3.0018 H   0  0  0  0  0  0  0  0  0  0  0  0
    4.8961    0.5507    4.0001 H   0  0  0  0  0  0  0  0  0  0  0  0
   -1.4722    4.4950    4.4094 H   0  0  0  0  0  0  0  0  0  0  0  0
   -1.3301   -0.2068   -0.1451 H   0  0  0  0  0  0  0  0  0  0  0  0
  1  2  1  0  0  0  0
  2 15  1  0  0  0  0
  2  3  1  0  0  0  0
  2  4  1  0  0  0  0
  3  5  1  0  0  0  0
  4  6  1  0  0  0  0
  5  6  1  0  0  0  0
  5  9  2  0  0  0  0
  6 10  2  0  0  0  0
  7  3  2  0  0  0  0
  7 11  1  0  0  0  0
  8  4  2  0  0  0  0
  8 12  1  0  0  0  0
  9 18  1  0  0  0  0
 10 19  1  0  0  0  0
 11 13  2  0  0  0  0
 12 14  2  0  0  0  0
 13  9  1  0  0  0  0
 13 22  1  0  0  0  0
 14 10  1  0  0  0  0
 14 23  1  0  0  0  0
 16  7  1  0  0  0  0
 17  8  1  0  0  0  0
 20 11  1  0  0  0  0
 21 12  1  0  0  0  0
 24  1  1  0  0  0  0
M  END
