206972964.xyz
 OpenBabel08132112093D
Cc1ccc(cc1)/C=N/n1c(S)nnc1c1ccccc1Cl
 35 37  0  0  0  0  0  0  0  0999 V2000
   -8.6552   -0.0536    0.2267 C   0  0  0  0  0  0  0  0  0  0  0  0
   -7.1717   -0.1076    0.4803 C   0  0  0  0  0  0  0  0  0  0  0  0
   -6.6310    0.4332    1.6635 C   0  0  0  0  0  0  0  0  0  0  0  0
   -5.2666    0.3954    1.9175 C   0  0  0  0  0  0  0  0  0  0  0  0
   -4.3897   -0.1944    0.9854 C   0  0  0  0  0  0  0  0  0  0  0  0
   -4.9192   -0.7268   -0.1998 C   0  0  0  0  0  0  0  0  0  0  0  0
   -6.2922   -0.6852   -0.4451 C   0  0  0  0  0  0  0  0  0  0  0  0
   -2.9484   -0.2569    1.2250 C   0  0  0  0  0  0  0  0  0  0  0  0
   -2.4598    0.1065    2.3524 N   0  0  0  0  0  0  0  0  0  0  0  0
   -1.1201    0.0931    2.5742 N   0  0  0  0  0  0  0  0  0  0  0  0
    0.0000    0.0000    1.7594 C   0  0  0  0  0  0  0  0  0  0  0  0
    0.0000    0.0000    0.0000 S   0  0  0  0  0  0  0  0  0  0  0  0
    1.0836    0.0000    2.4959 N   0  0  0  0  0  0  0  0  0  0  0  0
    0.7068    0.0930    3.8139 N   0  0  0  0  0  0  0  0  0  0  0  0
   -0.5982    0.1708    3.8624 C   0  0  0  0  0  0  0  0  0  0  0  0
   -1.4119    0.2200    5.0875 C   0  0  0  0  0  0  0  0  0  0  0  0
   -1.2052   -0.7686    6.0642 C   0  0  0  0  0  0  0  0  0  0  0  0
   -1.9315   -0.7724    7.2539 C   0  0  0  0  0  0  0  0  0  0  0  0
   -2.8827    0.2238    7.4876 C   0  0  0  0  0  0  0  0  0  0  0  0
   -3.0892    1.2303    6.5431 C   0  0  0  0  0  0  0  0  0  0  0  0
   -2.3512    1.2326    5.3575 C   0  0  0  0  0  0  0  0  0  0  0  0
   -2.5775    2.5625    4.2480 Cl  0  0  0  0  0  0  0  0  0  0  0  0
   -9.2122   -0.5802    1.0194 H   0  0  0  0  0  0  0  0  0  0  0  0
   -8.9198   -0.5130   -0.7364 H   0  0  0  0  0  0  0  0  0  0  0  0
   -9.0183    0.9876    0.2181 H   0  0  0  0  0  0  0  0  0  0  0  0
   -7.3010    0.8963    2.3933 H   0  0  0  0  0  0  0  0  0  0  0  0
   -4.8506    0.8306    2.8275 H   0  0  0  0  0  0  0  0  0  0  0  0
   -4.2488   -1.1810   -0.9347 H   0  0  0  0  0  0  0  0  0  0  0  0
   -6.6881   -1.1074   -1.3722 H   0  0  0  0  0  0  0  0  0  0  0  0
   -2.3330   -0.6440    0.3993 H   0  0  0  0  0  0  0  0  0  0  0  0
    1.3480    0.1247   -0.0353 H   0  0  0  0  0  0  0  0  0  0  0  0
   -0.4576   -1.5380    5.8646 H   0  0  0  0  0  0  0  0  0  0  0  0
   -1.7566   -1.5536    7.9965 H   0  0  0  0  0  0  0  0  0  0  0  0
   -3.4618    0.2284    8.4139 H   0  0  0  0  0  0  0  0  0  0  0  0
   -3.8090    2.0301    6.7219 H   0  0  0  0  0  0  0  0  0  0  0  0
  1  2  1  0  0  0  0
  1 23  1  0  0  0  0
  2  3  2  0  0  0  0
  3  4  1  0  0  0  0
  3 26  1  0  0  0  0
  4 27  1  0  0  0  0
  5  8  1  0  0  0  0
  5  4  2  0  0  0  0
  6  5  1  0  0  0  0
  7  6  2  0  0  0  0
  7  2  1  0  0  0  0
  8  9  2  0  0  0  0
  9 10  1  0  0  0  0
 10 15  1  0  0  0  0
 11 13  2  0  0  0  0
 11 10  1  0  0  0  0
 12 11  1  0  0  0  0
 13 14  1  0  0  0  0
 14 15  2  0  0  0  0
 15 16  1  0  0  0  0
 16 21  2  0  0  0  0
 16 17  1  0  0  0  0
 17 18  2  0  0  0  0
 18 19  1  0  0  0  0
 18 33  1  0  0  0  0
 19 34  1  0  0  0  0
 20 35  1  0  0  0  0
 20 19  2  0  0  0  0
 21 20  1  0  0  0  0
 22 21  1  0  0  0  0
 24  1  1  0  0  0  0
 25  1  1  0  0  0  0
 28  6  1  0  0  0  0
 29  7  1  0  0  0  0
 30  8  1  0  0  0  0
 31 12  1  0  0  0  0
 32 17  1  0  0  0  0
M  END
