206963513.xyz
 OpenBabel08132112083D
COc1c(OC)cc(cc1OC)c1nnc(n1/N=C/C(=C/c1ccccc1)/C)S
 51 53  0  0  0  0  0  0  0  0999 V2000
    3.5041    1.2085    9.4698 C   0  0  0  0  0  0  0  0  0  0  0  0
    3.8498    0.2314    8.5009 O   0  0  0  0  0  0  0  0  0  0  0  0
    3.0678    0.2165    7.3884 C   0  0  0  0  0  0  0  0  0  0  0  0
    3.4876    0.8929    6.2258 C   0  0  0  0  0  0  0  0  0  0  0  0
    4.6508    1.5781    6.3326 O   0  0  0  0  0  0  0  0  0  0  0  0
    5.1802    2.1984    5.1826 C   0  0  0  0  0  0  0  0  0  0  0  0
    2.7183    0.8295    5.0568 C   0  0  0  0  0  0  0  0  0  0  0  0
    1.5266    0.0869    5.0457 C   0  0  0  0  0  0  0  0  0  0  0  0
    1.0812   -0.5594    6.2067 C   0  0  0  0  0  0  0  0  0  0  0  0
    1.8409   -0.4779    7.3810 C   0  0  0  0  0  0  0  0  0  0  0  0
    1.4908   -1.0516    8.5562 O   0  0  0  0  0  0  0  0  0  0  0  0
    0.2818   -1.7758    8.6237 C   0  0  0  0  0  0  0  0  0  0  0  0
    0.6933   -0.0120    3.8405 C   0  0  0  0  0  0  0  0  0  0  0  0
   -0.6199   -0.0463    3.8263 N   0  0  0  0  0  0  0  0  0  0  0  0
   -1.0568   -0.0514    2.5255 N   0  0  0  0  0  0  0  0  0  0  0  0
    0.0000   -0.0000    1.7540 C   0  0  0  0  0  0  0  0  0  0  0  0
    1.1484   -0.0000    2.5210 N   0  0  0  0  0  0  0  0  0  0  0  0
    2.4146    0.0155    1.9851 N   0  0  0  0  0  0  0  0  0  0  0  0
    3.2788   -0.7519    2.5536 C   0  0  0  0  0  0  0  0  0  0  0  0
    4.7017   -0.7266    2.2145 C   0  0  0  0  0  0  0  0  0  0  0  0
    5.1916    0.3671    1.5689 C   0  0  0  0  0  0  0  0  0  0  0  0
    6.5511    0.6672    1.1287 C   0  0  0  0  0  0  0  0  0  0  0  0
    7.5317   -0.3080    0.8453 C   0  0  0  0  0  0  0  0  0  0  0  0
    8.8109    0.0656    0.4348 C   0  0  0  0  0  0  0  0  0  0  0  0
    9.1452    1.4161    0.2969 C   0  0  0  0  0  0  0  0  0  0  0  0
    8.1814    2.3965    0.5543 C   0  0  0  0  0  0  0  0  0  0  0  0
    6.9001    2.0248    0.9537 C   0  0  0  0  0  0  0  0  0  0  0  0
    5.5119   -1.8999    2.7026 C   0  0  0  0  0  0  0  0  0  0  0  0
    0.0000    0.0000    0.0000 S   0  0  0  0  0  0  0  0  0  0  0  0
    3.5827    2.2279    9.0524 H   0  0  0  0  0  0  0  0  0  0  0  0
    4.2183    1.1051   10.2987 H   0  0  0  0  0  0  0  0  0  0  0  0
    2.4818    1.0483    9.8524 H   0  0  0  0  0  0  0  0  0  0  0  0
    6.1391    2.6423    5.4807 H   0  0  0  0  0  0  0  0  0  0  0  0
    4.5185    2.9988    4.8045 H   0  0  0  0  0  0  0  0  0  0  0  0
    5.3560    1.4723    4.3692 H   0  0  0  0  0  0  0  0  0  0  0  0
    3.0261    1.3747    4.1694 H   0  0  0  0  0  0  0  0  0  0  0  0
    0.1389   -1.1011    6.1674 H   0  0  0  0  0  0  0  0  0  0  0  0
   -0.5901   -1.1400    8.3896 H   0  0  0  0  0  0  0  0  0  0  0  0
    0.1949   -2.1410    9.6553 H   0  0  0  0  0  0  0  0  0  0  0  0
    0.2850   -2.6391    7.9351 H   0  0  0  0  0  0  0  0  0  0  0  0
    2.9706   -1.4471    3.3481 H   0  0  0  0  0  0  0  0  0  0  0  0
    4.4665    1.1675    1.3913 H   0  0  0  0  0  0  0  0  0  0  0  0
    7.2848   -1.3660    0.9123 H   0  0  0  0  0  0  0  0  0  0  0  0
    9.5523   -0.7055    0.2127 H   0  0  0  0  0  0  0  0  0  0  0  0
   10.1497    1.7033   -0.0223 H   0  0  0  0  0  0  0  0  0  0  0  0
    8.4294    3.4538    0.4360 H   0  0  0  0  0  0  0  0  0  0  0  0
    6.1460    2.7927    1.1445 H   0  0  0  0  0  0  0  0  0  0  0  0
    5.5960   -2.6891    1.9355 H   0  0  0  0  0  0  0  0  0  0  0  0
    5.0329   -2.3581    3.5815 H   0  0  0  0  0  0  0  0  0  0  0  0
    6.5309   -1.6026    2.9867 H   0  0  0  0  0  0  0  0  0  0  0  0
    1.3351    0.2207   -0.0736 H   0  0  0  0  0  0  0  0  0  0  0  0
  1 32  1  0  0  0  0
  1 31  1  0  0  0  0
  2  1  1  0  0  0  0
  3  2  1  0  0  0  0
  4  5  1  0  0  0  0
  4  3  2  0  0  0  0
  6 33  1  0  0  0  0
  6  5  1  0  0  0  0
  7  4  1  0  0  0  0
  8  7  2  0  0  0  0
  8  9  1  0  0  0  0
  9 10  2  0  0  0  0
 10  3  1  0  0  0  0
 10 11  1  0  0  0  0
 11 12  1  0  0  0  0
 12 39  1  0  0  0  0
 13  8  1  0  0  0  0
 14 13  2  0  0  0  0
 15 14  1  0  0  0  0
 16 17  1  0  0  0  0
 16 15  2  0  0  0  0
 17 13  1  0  0  0  0
 18 17  1  0  0  0  0
 18 19  2  0  0  0  0
 19 41  1  0  0  0  0
 20 19  1  0  0  0  0
 20 28  1  0  0  0  0
 21 20  2  0  0  0  0
 22 21  1  0  0  0  0
 23 43  1  0  0  0  0
 23 22  2  0  0  0  0
 24 23  1  0  0  0  0
 25 24  2  0  0  0  0
 25 26  1  0  0  0  0
 26 27  2  0  0  0  0
 27 22  1  0  0  0  0
 27 47  1  0  0  0  0
 28 50  1  0  0  0  0
 28 49  1  0  0  0  0
 29 16  1  0  0  0  0
 30  1  1  0  0  0  0
 34  6  1  0  0  0  0
 35  6  1  0  0  0  0
 36  7  1  0  0  0  0
 37  9  1  0  0  0  0
 38 12  1  0  0  0  0
 40 12  1  0  0  0  0
 42 21  1  0  0  0  0
 44 24  1  0  0  0  0
 45 25  1  0  0  0  0
 46 26  1  0  0  0  0
 48 28  1  0  0  0  0
 51 29  1  0  0  0  0
M  END
