206973016.xyz
 OpenBabel08132112093D
Clc1ccc(cc1)/C=N/n1c(S)nnc1c1cccc(c1)C
 35 37  0  0  0  0  0  0  0  0999 V2000
   -8.6418   -0.5722   -0.4285 Cl  0  0  0  0  0  0  0  0  0  0  0  0
   -6.9776   -0.3531    0.0370 C   0  0  0  0  0  0  0  0  0  0  0  0
   -6.1474    0.4649   -0.7341 C   0  0  0  0  0  0  0  0  0  0  0  0
   -4.8173    0.6332   -0.3530 C   0  0  0  0  0  0  0  0  0  0  0  0
   -4.3085   -0.0059    0.7899 C   0  0  0  0  0  0  0  0  0  0  0  0
   -5.1613   -0.8314    1.5486 C   0  0  0  0  0  0  0  0  0  0  0  0
   -6.4897   -1.0037    1.1789 C   0  0  0  0  0  0  0  0  0  0  0  0
   -2.9132    0.2077    1.1718 C   0  0  0  0  0  0  0  0  0  0  0  0
   -2.4385   -0.3155    2.2421 N   0  0  0  0  0  0  0  0  0  0  0  0
   -1.1292   -0.1185    2.5613 N   0  0  0  0  0  0  0  0  0  0  0  0
    0.0000   -0.0000    1.7603 C   0  0  0  0  0  0  0  0  0  0  0  0
    0.0000    0.0000    0.0000 S   0  0  0  0  0  0  0  0  0  0  0  0
    1.0741    0.0000    2.5082 N   0  0  0  0  0  0  0  0  0  0  0  0
    0.6826   -0.1135    3.8138 N   0  0  0  0  0  0  0  0  0  0  0  0
   -0.6280   -0.2003    3.8613 C   0  0  0  0  0  0  0  0  0  0  0  0
   -1.4071   -0.3355    5.0970 C   0  0  0  0  0  0  0  0  0  0  0  0
   -0.7178   -0.7506    6.2515 C   0  0  0  0  0  0  0  0  0  0  0  0
   -1.4007   -0.8849    7.4574 C   0  0  0  0  0  0  0  0  0  0  0  0
   -2.7685   -0.6093    7.5319 C   0  0  0  0  0  0  0  0  0  0  0  0
   -3.4737   -0.1834    6.3970 C   0  0  0  0  0  0  0  0  0  0  0  0
   -2.7809   -0.0498    5.1876 C   0  0  0  0  0  0  0  0  0  0  0  0
   -4.9431    0.1479    6.4817 C   0  0  0  0  0  0  0  0  0  0  0  0
   -6.5453    0.9603   -1.6204 H   0  0  0  0  0  0  0  0  0  0  0  0
   -4.1632    1.2727   -0.9514 H   0  0  0  0  0  0  0  0  0  0  0  0
   -4.7607   -1.3355    2.4295 H   0  0  0  0  0  0  0  0  0  0  0  0
   -7.1557   -1.6412    1.7619 H   0  0  0  0  0  0  0  0  0  0  0  0
   -2.3168    0.8597    0.5155 H   0  0  0  0  0  0  0  0  0  0  0  0
    1.3300   -0.2486   -0.0398 H   0  0  0  0  0  0  0  0  0  0  0  0
    0.3491   -0.9631    6.1773 H   0  0  0  0  0  0  0  0  0  0  0  0
   -0.8626   -1.2139    8.3496 H   0  0  0  0  0  0  0  0  0  0  0  0
   -3.2959   -0.7239    8.4830 H   0  0  0  0  0  0  0  0  0  0  0  0
   -3.3216    0.2847    4.3044 H   0  0  0  0  0  0  0  0  0  0  0  0
   -5.3976    0.2241    5.4828 H   0  0  0  0  0  0  0  0  0  0  0  0
   -5.1040    1.1119    6.9941 H   0  0  0  0  0  0  0  0  0  0  0  0
   -5.4951   -0.6161    7.0518 H   0  0  0  0  0  0  0  0  0  0  0  0
  1  2  1  0  0  0  0
  2  7  2  0  0  0  0
  3  4  2  0  0  0  0
  3  2  1  0  0  0  0
  4  5  1  0  0  0  0
  5  8  1  0  0  0  0
  5  6  2  0  0  0  0
  6 25  1  0  0  0  0
  7  6  1  0  0  0  0
  7 26  1  0  0  0  0
  8  9  2  0  0  0  0
  9 10  1  0  0  0  0
 10 15  1  0  0  0  0
 11 13  2  0  0  0  0
 11 10  1  0  0  0  0
 12 11  1  0  0  0  0
 13 14  1  0  0  0  0
 14 15  2  0  0  0  0
 15 16  1  0  0  0  0
 16 21  2  0  0  0  0
 16 17  1  0  0  0  0
 17 18  2  0  0  0  0
 18 19  1  0  0  0  0
 18 30  1  0  0  0  0
 19 31  1  0  0  0  0
 20 22  1  0  0  0  0
 20 19  2  0  0  0  0
 21 20  1  0  0  0  0
 22 34  1  0  0  0  0
 22 35  1  0  0  0  0
 23  3  1  0  0  0  0
 24  4  1  0  0  0  0
 27  8  1  0  0  0  0
 28 12  1  0  0  0  0
 29 17  1  0  0  0  0
 32 21  1  0  0  0  0
 33 22  1  0  0  0  0
M  END
