206995228.xyz
 OpenBabel08132112093D
CCOc1cccc(c1)c1nnc(n1/N=C/c1cccc(c1)F)S
 39 41  0  0  0  0  0  0  0  0999 V2000
    1.5034   -0.0385   10.4674 C   0  0  0  0  0  0  0  0  0  0  0  0
    1.9892    1.1852    9.7041 C   0  0  0  0  0  0  0  0  0  0  0  0
    1.4040    1.2934    8.4133 O   0  0  0  0  0  0  0  0  0  0  0  0
    1.8427    0.5220    7.3902 C   0  0  0  0  0  0  0  0  0  0  0  0
    2.9551   -0.3328    7.4482 C   0  0  0  0  0  0  0  0  0  0  0  0
    3.3163   -1.0710    6.3156 C   0  0  0  0  0  0  0  0  0  0  0  0
    2.5983   -0.9698    5.1278 C   0  0  0  0  0  0  0  0  0  0  0  0
    1.4921   -0.0991    5.0633 C   0  0  0  0  0  0  0  0  0  0  0  0
    1.1176    0.6333    6.1930 C   0  0  0  0  0  0  0  0  0  0  0  0
    0.6754    0.0224    3.8470 C   0  0  0  0  0  0  0  0  0  0  0  0
   -0.6352    0.0528    3.8210 N   0  0  0  0  0  0  0  0  0  0  0  0
   -1.0614    0.0527    2.5154 N   0  0  0  0  0  0  0  0  0  0  0  0
   -0.0000   -0.0000    1.7528 C   0  0  0  0  0  0  0  0  0  0  0  0
    1.1457    0.0000    2.5302 N   0  0  0  0  0  0  0  0  0  0  0  0
    2.4019    0.0290    1.9877 N   0  0  0  0  0  0  0  0  0  0  0  0
    3.3103    0.6896    2.6084 C   0  0  0  0  0  0  0  0  0  0  0  0
    4.6897    0.7349    2.1240 C   0  0  0  0  0  0  0  0  0  0  0  0
    5.6264    1.5194    2.8183 C   0  0  0  0  0  0  0  0  0  0  0  0
    6.9494    1.5886    2.3770 C   0  0  0  0  0  0  0  0  0  0  0  0
    7.3530    0.8774    1.2460 C   0  0  0  0  0  0  0  0  0  0  0  0
    6.4111    0.0978    0.5696 C   0  0  0  0  0  0  0  0  0  0  0  0
    5.0919    0.0101    0.9874 C   0  0  0  0  0  0  0  0  0  0  0  0
    6.7995   -0.5883   -0.5120 F   0  0  0  0  0  0  0  0  0  0  0  0
    0.0000    0.0000    0.0000 S   0  0  0  0  0  0  0  0  0  0  0  0
    1.9247   -0.0418   11.4852 H   0  0  0  0  0  0  0  0  0  0  0  0
    0.4057   -0.0266   10.5455 H   0  0  0  0  0  0  0  0  0  0  0  0
    1.7990   -0.9748    9.9713 H   0  0  0  0  0  0  0  0  0  0  0  0
    1.6847    2.1048   10.2252 H   0  0  0  0  0  0  0  0  0  0  0  0
    3.0912    1.2050    9.6297 H   0  0  0  0  0  0  0  0  0  0  0  0
    3.5371   -0.4388    8.3628 H   0  0  0  0  0  0  0  0  0  0  0  0
    4.1715   -1.7485    6.3739 H   0  0  0  0  0  0  0  0  0  0  0  0
    2.8771   -1.5732    4.2634 H   0  0  0  0  0  0  0  0  0  0  0  0
    0.2527    1.2957    6.1573 H   0  0  0  0  0  0  0  0  0  0  0  0
    3.0918    1.2473    3.5288 H   0  0  0  0  0  0  0  0  0  0  0  0
    5.3126    2.0738    3.7055 H   0  0  0  0  0  0  0  0  0  0  0  0
    7.6748    2.1999    2.9177 H   0  0  0  0  0  0  0  0  0  0  0  0
    8.3803    0.9105    0.8794 H   0  0  0  0  0  0  0  0  0  0  0  0
    4.3821   -0.6147    0.4454 H   0  0  0  0  0  0  0  0  0  0  0  0
    1.3409   -0.1746   -0.0764 H   0  0  0  0  0  0  0  0  0  0  0  0
  1 26  1  0  0  0  0
  1 25  1  0  0  0  0
  2 28  1  0  0  0  0
  2  1  1  0  0  0  0
  3  2  1  0  0  0  0
  4  5  1  0  0  0  0
  4  3  1  0  0  0  0
  5 30  1  0  0  0  0
  6 31  1  0  0  0  0
  6  5  2  0  0  0  0
  7  6  1  0  0  0  0
  8  7  2  0  0  0  0
  8  9  1  0  0  0  0
  9  4  2  0  0  0  0
 10  8  1  0  0  0  0
 11 10  2  0  0  0  0
 12 11  1  0  0  0  0
 13 12  2  0  0  0  0
 13 14  1  0  0  0  0
 14 10  1  0  0  0  0
 15 14  1  0  0  0  0
 15 16  2  0  0  0  0
 16 34  1  0  0  0  0
 17 16  1  0  0  0  0
 17 18  2  0  0  0  0
 18 35  1  0  0  0  0
 19 18  1  0  0  0  0
 19 36  1  0  0  0  0
 20 19  2  0  0  0  0
 21 22  2  0  0  0  0
 21 20  1  0  0  0  0
 22 17  1  0  0  0  0
 23 21  1  0  0  0  0
 24 13  1  0  0  0  0
 27  1  1  0  0  0  0
 29  2  1  0  0  0  0
 32  7  1  0  0  0  0
 33  9  1  0  0  0  0
 37 20  1  0  0  0  0
 38 22  1  0  0  0  0
 39 24  1  0  0  0  0
M  END
