207119349.xyz
 OpenBabel08132112093D
C=CCN/C(=N/N=C\c1c(O)ccc2c1cccc2)/S
 35 36  0  0  1  0  0  0  0  0999 V2000
    3.8513    2.3342    2.2636 C   0  0  0  0  0  0  0  0  0  0  0  0
    2.7957    1.7432    1.7002 C   0  0  0  0  0  0  0  0  0  0  0  0
    2.4874    0.2715    1.8047 C   0  0  0  0  0  0  0  0  0  0  0  0
    1.1980   -0.0000    2.4165 N   0  0  0  0  0  0  0  0  0  0  0  0
   -0.0000   -0.0000    1.7776 C   0  0  2  0  0  0  0  0  0  0  0  0
   -1.0846   -0.0115    2.5037 N   0  0  0  0  0  0  0  0  0  0  0  0
   -2.2448   -0.0556    1.7978 N   0  0  0  0  0  0  0  0  0  0  0  0
   -3.3563   -0.0222    2.4482 C   0  0  0  0  0  0  0  0  0  0  0  0
   -3.5636    0.0861    3.9071 C   0  0  0  0  0  0  0  0  0  0  0  0
   -4.4226   -0.8394    4.4979 C   0  0  0  0  0  0  0  0  0  0  0  0
   -4.9988   -1.7759    3.6979 O   0  0  0  0  0  0  0  0  0  0  0  0
   -4.6710   -0.8262    5.8929 C   0  0  0  0  0  0  0  0  0  0  0  0
   -4.0745    0.1200    6.6928 C   0  0  0  0  0  0  0  0  0  0  0  0
   -3.2248    1.1131    6.1377 C   0  0  0  0  0  0  0  0  0  0  0  0
   -2.9755    1.1078    4.7241 C   0  0  0  0  0  0  0  0  0  0  0  0
   -2.1835    2.1612    4.1848 C   0  0  0  0  0  0  0  0  0  0  0  0
   -1.6407    3.1322    4.9989 C   0  0  0  0  0  0  0  0  0  0  0  0
   -1.8555    3.1102    6.3995 C   0  0  0  0  0  0  0  0  0  0  0  0
   -2.6383    2.1213    6.9520 C   0  0  0  0  0  0  0  0  0  0  0  0
    0.0000    0.0000    0.0000 S   0  0  0  0  0  0  0  0  0  0  0  0
    4.5820    1.7630    2.8468 H   0  0  0  0  0  0  0  0  0  0  0  0
    4.0316    3.4076    2.1603 H   0  0  0  0  0  0  0  0  0  0  0  0
    2.0733    2.3324    1.1228 H   0  0  0  0  0  0  0  0  0  0  0  0
    2.4938   -0.1919    0.8047 H   0  0  0  0  0  0  0  0  0  0  0  0
    3.2658   -0.2398    2.3929 H   0  0  0  0  0  0  0  0  0  0  0  0
    1.1108    0.1306    3.4207 H   0  0  0  0  0  0  0  0  0  0  0  0
   -4.2531   -0.1477    1.8304 H   0  0  0  0  0  0  0  0  0  0  0  0
   -5.5819   -2.3356    4.2261 H   0  0  0  0  0  0  0  0  0  0  0  0
   -5.3324   -1.5839    6.3246 H   0  0  0  0  0  0  0  0  0  0  0  0
   -4.2604    0.1233    7.7697 H   0  0  0  0  0  0  0  0  0  0  0  0
   -2.0111    2.1962    3.1113 H   0  0  0  0  0  0  0  0  0  0  0  0
   -1.0385    3.9305    4.5581 H   0  0  0  0  0  0  0  0  0  0  0  0
   -1.4119    3.8825    7.0322 H   0  0  0  0  0  0  0  0  0  0  0  0
   -2.8316    2.1005    8.0278 H   0  0  0  0  0  0  0  0  0  0  0  0
   -1.3749   -0.0626    0.0818 H   0  0  0  0  0  0  0  0  0  0  0  0
  1 21  1  0  0  0  0
  2  3  1  0  0  0  0
  2  1  2  0  0  0  0
  3 25  1  0  0  0  0
  3  4  1  0  0  0  0
  4 26  1  0  0  0  0
  5 20  1  6  0  0  0
  5  4  1  0  0  0  0
  5  6  1  0  0  0  0
  7  8  2  0  0  0  0
  7  6  1  0  0  0  0
  8  9  1  0  0  0  0
  9 10  2  0  0  0  0
  9 15  1  0  0  0  0
 10 12  1  0  0  0  0
 11 28  1  0  0  0  0
 11 10  1  0  0  0  0
 12 29  1  0  0  0  0
 12 13  2  0  0  0  0
 13 30  1  0  0  0  0
 14 13  1  0  0  0  0
 14 19  2  0  0  0  0
 15 14  1  0  0  0  0
 16 15  2  0  0  0  0
 16 17  1  0  0  0  0
 17 18  2  0  0  0  0
 18 19  1  0  0  0  0
 18 33  1  0  0  0  0
 19 34  1  0  0  0  0
 20 35  1  0  0  0  0
 22  1  1  0  0  0  0
 23  2  1  0  0  0  0
 24  3  1  0  0  0  0
 27  8  1  0  0  0  0
 31 16  1  0  0  0  0
 32 17  1  0  0  0  0
M  RAD  2   5   2   6   2
M  END
