24343386.xyz
 OpenBabel08132112093D
Sc1c2CCCCc2nc2c1cccc2
 28 30  0  0  1  0  0  0  0  0999 V2000
    0.0000    0.0000    0.0000 S   0  0  0  0  0  0  0  0  0  0  0  0
   -0.0000    0.0000    1.7828 C   0  0  0  0  0  0  0  0  0  0  0  0
    1.2316    0.0000    2.4324 C   0  0  0  0  0  0  0  0  0  0  0  0
    2.5304   -0.0058    1.6541 C   0  0  0  0  0  0  0  0  0  0  0  0
    3.7603    0.3551    2.4888 C   0  0  0  0  0  0  0  0  0  0  0  0
    3.7536   -0.4061    3.8127 C   0  0  0  0  0  0  0  0  0  0  0  0
    2.5372    0.0078    4.6377 C   0  0  0  0  0  0  0  0  0  0  0  0
    1.2330   -0.0148    3.8655 C   0  0  0  0  0  0  0  0  0  0  0  0
    0.1344   -0.0049    4.5904 N   0  0  0  0  0  0  0  0  0  0  0  0
   -1.0723   -0.0143    3.9728 C   0  0  0  0  0  0  0  0  0  0  0  0
   -1.2115   -0.0416    2.5459 C   0  0  2  0  0  0  0  0  0  0  0  0
   -2.5203   -0.1224    1.9973 C   0  0  0  0  0  0  0  0  0  0  0  0
   -3.6345   -0.1273    2.8114 C   0  0  0  0  0  0  0  0  0  0  0  0
   -3.4956   -0.0607    4.2187 C   0  0  0  0  0  0  0  0  0  0  0  0
   -2.2406   -0.0131    4.7843 C   0  0  0  0  0  0  0  0  0  0  0  0
   -1.1978    0.6003   -0.1630 H   0  0  0  0  0  0  0  0  0  0  0  0
    2.4350    0.6724    0.7900 H   0  0  0  0  0  0  0  0  0  0  0  0
    2.6727   -1.0138    1.2200 H   0  0  0  0  0  0  0  0  0  0  0  0
    4.6727    0.1420    1.9097 H   0  0  0  0  0  0  0  0  0  0  0  0
    3.7638    1.4403    2.6954 H   0  0  0  0  0  0  0  0  0  0  0  0
    3.7211   -1.4920    3.6108 H   0  0  0  0  0  0  0  0  0  0  0  0
    4.6777   -0.2188    4.3822 H   0  0  0  0  0  0  0  0  0  0  0  0
    2.4063   -0.6186    5.5327 H   0  0  0  0  0  0  0  0  0  0  0  0
    2.6806    1.0383    5.0121 H   0  0  0  0  0  0  0  0  0  0  0  0
   -2.6493   -0.2120    0.9182 H   0  0  0  0  0  0  0  0  0  0  0  0
   -4.6299   -0.1952    2.3664 H   0  0  0  0  0  0  0  0  0  0  0  0
   -4.3855   -0.0615    4.8526 H   0  0  0  0  0  0  0  0  0  0  0  0
   -2.0914    0.0200    5.8649 H   0  0  0  0  0  0  0  0  0  0  0  0
  1  2  1  0  0  0  0
  2  3  2  0  0  0  0
  3  8  1  0  0  0  0
  4  3  1  0  0  0  0
  4  5  1  0  0  0  0
  5 20  1  0  0  0  0
  5  6  1  0  0  0  0
  6 22  1  0  0  0  0
  6  7  1  0  0  0  0
  7 24  1  0  0  0  0
  7 23  1  0  0  0  0
  8  9  2  0  0  0  0
  8  7  1  0  0  0  0
 10  9  2  0  0  0  0
 10 15  1  0  0  0  0
 11  2  1  1  0  0  0
 11 10  1  0  0  0  0
 12 11  1  0  0  0  0
 12 13  2  0  0  0  0
 13 14  1  0  0  0  0
 14 15  2  0  0  0  0
 14 27  1  0  0  0  0
 15 28  1  0  0  0  0
 16  1  1  0  0  0  0
 17  4  1  0  0  0  0
 18  4  1  0  0  0  0
 19  5  1  0  0  0  0
 21  6  1  0  0  0  0
 25 12  1  0  0  0  0
 26 13  1  0  0  0  0
M  RAD  1  11   2
M  END
