257841002.xyz
 OpenBabel08132112093D
C=CCn1c(nnc1S)Cc1csc(n1)NC(=O)c1snnc1CC
 40 42  0  0  1  0  0  0  0  0999 V2000
   -3.2909    1.7168    0.2675 C   0  0  0  0  0  0  0  0  0  0  0  0
   -2.8809    1.4226    1.5016 C   0  0  0  0  0  0  0  0  0  0  0  0
   -2.5219    0.0391    1.9697 C   0  0  0  0  0  0  0  0  0  0  0  0
   -1.1586   -0.0159    2.4998 N   0  0  0  0  0  0  0  0  0  0  0  0
   -0.7147   -0.0087    3.8089 C   0  0  0  0  0  0  0  0  0  0  0  0
    0.5959   -0.0023    3.8365 N   0  0  0  0  0  0  0  0  0  0  0  0
    1.0541    0.0000    2.5413 N   0  0  0  0  0  0  0  0  0  0  0  0
    0.0000   -0.0000    1.7610 C   0  0  0  0  0  0  0  0  0  0  0  0
    0.0000    0.0000    0.0000 S   0  0  0  0  0  0  0  0  0  0  0  0
   -1.5838    0.0130    5.0294 C   0  0  0  0  0  0  0  0  0  0  0  0
   -2.5618    1.1602    5.0405 C   0  0  0  0  0  0  0  0  0  0  0  0
   -2.2686    2.4741    5.3010 C   0  0  0  0  0  0  0  0  0  0  0  0
   -3.6661    3.4707    5.0285 S   0  0  0  0  0  0  0  0  0  0  0  0
   -4.5578    2.0098    4.6067 C   0  0  0  0  0  0  0  0  0  0  0  0
   -3.8649    0.9180    4.6729 N   0  0  0  0  0  0  0  0  0  0  0  0
   -5.8814    2.0901    4.1950 N   0  0  0  0  0  0  0  0  0  0  0  0
   -6.4524    1.2698    3.2247 C   0  0  0  0  0  0  0  0  0  0  0  0
   -5.8486    0.4146    2.6167 O   0  0  0  0  0  0  0  0  0  0  0  0
   -7.8914    1.5539    2.9658 C   0  0  1  0  0  0  0  0  0  0  0  0
   -8.5611    1.1386    1.4382 S   0  0  0  0  0  0  0  0  0  0  0  0
  -10.1113    1.7017    1.9125 N   0  0  0  0  0  0  0  0  0  0  0  0
  -10.1095    2.1322    3.1109 N   0  0  0  0  0  0  0  0  0  0  0  0
   -8.9009    2.0741    3.7629 C   0  0  0  0  0  0  0  0  0  0  0  0
   -8.8413    2.5595    5.1837 C   0  0  0  0  0  0  0  0  0  0  0  0
   -8.6588    4.0808    5.2884 C   0  0  0  0  0  0  0  0  0  0  0  0
   -3.5506    2.7389   -0.0198 H   0  0  0  0  0  0  0  0  0  0  0  0
   -3.3866    0.9443   -0.5020 H   0  0  0  0  0  0  0  0  0  0  0  0
   -2.7834    2.2141    2.2532 H   0  0  0  0  0  0  0  0  0  0  0  0
   -3.2175   -0.2740    2.7604 H   0  0  0  0  0  0  0  0  0  0  0  0
   -2.6009   -0.6846    1.1438 H   0  0  0  0  0  0  0  0  0  0  0  0
    1.3214   -0.2828   -0.0524 H   0  0  0  0  0  0  0  0  0  0  0  0
   -2.1606   -0.9208    5.1198 H   0  0  0  0  0  0  0  0  0  0  0  0
   -0.8929    0.0685    5.8811 H   0  0  0  0  0  0  0  0  0  0  0  0
   -1.3215    2.9050    5.6195 H   0  0  0  0  0  0  0  0  0  0  0  0
   -6.4038    2.9091    4.4814 H   0  0  0  0  0  0  0  0  0  0  0  0
   -8.0432    2.0319    5.7267 H   0  0  0  0  0  0  0  0  0  0  0  0
   -9.7929    2.2796    5.6599 H   0  0  0  0  0  0  0  0  0  0  0  0
   -9.4692    4.6026    4.7581 H   0  0  0  0  0  0  0  0  0  0  0  0
   -8.6657    4.4059    6.3396 H   0  0  0  0  0  0  0  0  0  0  0  0
   -7.7096    4.4223    4.8386 H   0  0  0  0  0  0  0  0  0  0  0  0
  1  2  2  0  0  0  0
  2  3  1  0  0  0  0
  2 28  1  0  0  0  0
  3  4  1  0  0  0  0
  3 29  1  0  0  0  0
  4  5  1  0  0  0  0
  5  6  2  0  0  0  0
  5 10  1  0  0  0  0
  7  6  1  0  0  0  0
  8  4  1  0  0  0  0
  8  7  2  0  0  0  0
  9  8  1  0  0  0  0
 10 11  1  0  0  0  0
 10 32  1  0  0  0  0
 10 33  1  0  0  0  0
 11 12  1  0  0  0  0
 12 34  1  0  0  0  0
 13 12  1  0  0  0  0
 14 15  2  0  0  0  0
 14 13  1  0  0  0  0
 15 11  2  0  0  0  0
 16 35  1  0  0  0  0
 16 14  1  0  0  0  0
 17 16  1  0  0  0  0
 18 17  2  0  0  0  0
 19 17  1  1  0  0  0
 19 23  1  0  0  0  0
 20 21  1  0  0  0  0
 20 19  1  0  0  0  0
 21 22  1  0  0  0  0
 22 23  2  0  0  0  0
 23 24  1  0  0  0  0
 24 25  1  0  0  0  0
 24 37  1  0  0  0  0
 24 36  1  0  0  0  0
 25 39  1  0  0  0  0
 26  1  1  0  0  0  0
 27  1  1  0  0  0  0
 30  3  1  0  0  0  0
 31  9  1  0  0  0  0
 38 25  1  0  0  0  0
 40 25  1  0  0  0  0
M  RAD  3  12   2  19   2  21   2
M  END
