25869164.xyz
 OpenBabel08132112093D
COC(=O)c1ccc(cc1)/C=N/n1c(S)nnc1c1ccccc1
 38 40  0  0  0  0  0  0  0  0999 V2000
  -10.1099   -0.1148   -1.9028 C   0  0  0  0  0  0  0  0  0  0  0  0
   -8.7568    0.0485   -1.4812 O   0  0  0  0  0  0  0  0  0  0  0  0
   -8.4012   -0.6154   -0.3667 C   0  0  0  0  0  0  0  0  0  0  0  0
   -9.1624   -1.3152    0.2598 O   0  0  0  0  0  0  0  0  0  0  0  0
   -6.9723   -0.3878    0.0007 C   0  0  0  0  0  0  0  0  0  0  0  0
   -6.4772   -1.0318    1.1479 C   0  0  0  0  0  0  0  0  0  0  0  0
   -5.1556   -0.8581    1.5352 C   0  0  0  0  0  0  0  0  0  0  0  0
   -4.3031   -0.0272    0.7815 C   0  0  0  0  0  0  0  0  0  0  0  0
   -4.8012    0.6115   -0.3671 C   0  0  0  0  0  0  0  0  0  0  0  0
   -6.1269    0.4345   -0.7569 C   0  0  0  0  0  0  0  0  0  0  0  0
   -2.9092    0.1934    1.1698 C   0  0  0  0  0  0  0  0  0  0  0  0
   -2.4374   -0.3188    2.2467 N   0  0  0  0  0  0  0  0  0  0  0  0
   -1.1284   -0.1219    2.5635 N   0  0  0  0  0  0  0  0  0  0  0  0
   -0.0000    0.0000    1.7599 C   0  0  0  0  0  0  0  0  0  0  0  0
    0.0000    0.0000    0.0000 S   0  0  0  0  0  0  0  0  0  0  0  0
    1.0750    0.0000    2.5060 N   0  0  0  0  0  0  0  0  0  0  0  0
    0.6861   -0.1162    3.8121 N   0  0  0  0  0  0  0  0  0  0  0  0
   -0.6237   -0.2057    3.8625 C   0  0  0  0  0  0  0  0  0  0  0  0
   -1.3972   -0.3439    5.1014 C   0  0  0  0  0  0  0  0  0  0  0  0
   -2.7730   -0.0712    5.2039 C   0  0  0  0  0  0  0  0  0  0  0  0
   -3.4271   -0.2102    6.4299 C   0  0  0  0  0  0  0  0  0  0  0  0
   -2.7249   -0.6167    7.5663 C   0  0  0  0  0  0  0  0  0  0  0  0
   -1.3537   -0.8807    7.4732 C   0  0  0  0  0  0  0  0  0  0  0  0
   -0.6941   -0.7460    6.2548 C   0  0  0  0  0  0  0  0  0  0  0  0
  -10.2218    0.4873   -2.8124 H   0  0  0  0  0  0  0  0  0  0  0  0
  -10.3270   -1.1728   -2.1134 H   0  0  0  0  0  0  0  0  0  0  0  0
  -10.8050    0.2331   -1.1239 H   0  0  0  0  0  0  0  0  0  0  0  0
   -7.1548   -1.6696    1.7176 H   0  0  0  0  0  0  0  0  0  0  0  0
   -4.7580   -1.3597    2.4186 H   0  0  0  0  0  0  0  0  0  0  0  0
   -4.1410    1.2529   -0.9565 H   0  0  0  0  0  0  0  0  0  0  0  0
   -6.5161    0.9293   -1.6465 H   0  0  0  0  0  0  0  0  0  0  0  0
   -2.3112    0.8402    0.5102 H   0  0  0  0  0  0  0  0  0  0  0  0
    1.3303   -0.2474   -0.0391 H   0  0  0  0  0  0  0  0  0  0  0  0
   -3.3316    0.2536    4.3288 H   0  0  0  0  0  0  0  0  0  0  0  0
   -4.4960    0.0069    6.4952 H   0  0  0  0  0  0  0  0  0  0  0  0
   -3.2421   -0.7248    8.5226 H   0  0  0  0  0  0  0  0  0  0  0  0
   -0.7953   -1.1963    8.3577 H   0  0  0  0  0  0  0  0  0  0  0  0
    0.3745   -0.9461    6.1681 H   0  0  0  0  0  0  0  0  0  0  0  0
  1  2  1  0  0  0  0
  1 27  1  0  0  0  0
  2  3  1  0  0  0  0
  3  5  1  0  0  0  0
  3  4  2  0  0  0  0
  5  6  2  0  0  0  0
  6  7  1  0  0  0  0
  6 28  1  0  0  0  0
  7 29  1  0  0  0  0
  8 11  1  0  0  0  0
  8  7  2  0  0  0  0
  9  8  1  0  0  0  0
 10  9  2  0  0  0  0
 10  5  1  0  0  0  0
 11 12  2  0  0  0  0
 12 13  1  0  0  0  0
 13 18  1  0  0  0  0
 14 16  2  0  0  0  0
 14 13  1  0  0  0  0
 15 14  1  0  0  0  0
 16 17  1  0  0  0  0
 17 18  2  0  0  0  0
 18 19  1  0  0  0  0
 19 20  2  0  0  0  0
 19 24  1  0  0  0  0
 20 21  1  0  0  0  0
 21 35  1  0  0  0  0
 21 22  2  0  0  0  0
 22 36  1  0  0  0  0
 23 22  1  0  0  0  0
 23 37  1  0  0  0  0
 24 23  2  0  0  0  0
 25  1  1  0  0  0  0
 26  1  1  0  0  0  0
 30  9  1  0  0  0  0
 31 10  1  0  0  0  0
 32 11  1  0  0  0  0
 33 15  1  0  0  0  0
 34 20  1  0  0  0  0
 38 24  1  0  0  0  0
M  END
