25937423.xyz
 OpenBabel08132112093D
CCCCOc1ccc(cc1)/C=N/n1c(C)nnc1S
 38 39  0  0  0  0  0  0  0  0999 V2000
   -9.1236    3.0786   -2.7055 C   0  0  0  0  0  0  0  0  0  0  0  0
   -9.4430    2.0676   -1.6064 C   0  0  0  0  0  0  0  0  0  0  0  0
   -8.7332    0.7269   -1.8044 C   0  0  0  0  0  0  0  0  0  0  0  0
   -9.0276   -0.2856   -0.7030 C   0  0  0  0  0  0  0  0  0  0  0  0
   -8.6717    0.1883    0.5939 O   0  0  0  0  0  0  0  0  0  0  0  0
   -7.3855    0.1974    0.9995 C   0  0  0  0  0  0  0  0  0  0  0  0
   -7.1409    0.7898    2.2520 C   0  0  0  0  0  0  0  0  0  0  0  0
   -5.8530    0.8316    2.7656 C   0  0  0  0  0  0  0  0  0  0  0  0
   -4.7666    0.2909    2.0495 C   0  0  0  0  0  0  0  0  0  0  0  0
   -5.0228   -0.3057    0.8022 C   0  0  0  0  0  0  0  0  0  0  0  0
   -6.3090   -0.3531    0.2760 C   0  0  0  0  0  0  0  0  0  0  0  0
   -3.4251    0.3681    2.6157 C   0  0  0  0  0  0  0  0  0  0  0  0
   -2.3915   -0.0279    1.9638 N   0  0  0  0  0  0  0  0  0  0  0  0
   -1.1533    0.0323    2.5271 N   0  0  0  0  0  0  0  0  0  0  0  0
   -0.6829    0.0217    3.8450 C   0  0  0  0  0  0  0  0  0  0  0  0
   -1.5053   -0.0456    5.0848 C   0  0  0  0  0  0  0  0  0  0  0  0
    0.6230    0.0002    3.8250 N   0  0  0  0  0  0  0  0  0  0  0  0
    1.0581   -0.0000    2.5170 N   0  0  0  0  0  0  0  0  0  0  0  0
    0.0000    0.0000    1.7541 C   0  0  0  0  0  0  0  0  0  0  0  0
    0.0000    0.0000    0.0000 S   0  0  0  0  0  0  0  0  0  0  0  0
   -8.0429    3.2938   -2.7469 H   0  0  0  0  0  0  0  0  0  0  0  0
   -9.6469    4.0331   -2.5396 H   0  0  0  0  0  0  0  0  0  0  0  0
   -9.4230    2.7016   -3.6977 H   0  0  0  0  0  0  0  0  0  0  0  0
   -9.1603    2.4790   -0.6233 H   0  0  0  0  0  0  0  0  0  0  0  0
  -10.5335    1.8955   -1.5598 H   0  0  0  0  0  0  0  0  0  0  0  0
   -9.0396    0.2740   -2.7644 H   0  0  0  0  0  0  0  0  0  0  0  0
   -7.6448    0.8931   -1.8792 H   0  0  0  0  0  0  0  0  0  0  0  0
   -8.5391   -1.2546   -0.9029 H   0  0  0  0  0  0  0  0  0  0  0  0
  -10.1103   -0.4703   -0.6383 H   0  0  0  0  0  0  0  0  0  0  0  0
   -7.9876    1.2069    2.7993 H   0  0  0  0  0  0  0  0  0  0  0  0
   -5.6780    1.2959    3.7400 H   0  0  0  0  0  0  0  0  0  0  0  0
   -4.1911   -0.7408    0.2461 H   0  0  0  0  0  0  0  0  0  0  0  0
   -6.4687   -0.8229   -0.6934 H   0  0  0  0  0  0  0  0  0  0  0  0
   -3.3503    0.7965    3.6235 H   0  0  0  0  0  0  0  0  0  0  0  0
   -2.2735   -0.8333    5.0271 H   0  0  0  0  0  0  0  0  0  0  0  0
   -2.0083    0.9078    5.3155 H   0  0  0  0  0  0  0  0  0  0  0  0
   -0.8226   -0.2776    5.9126 H   0  0  0  0  0  0  0  0  0  0  0  0
   -1.3501   -0.0886   -0.0663 H   0  0  0  0  0  0  0  0  0  0  0  0
  1 22  1  0  0  0  0
  1  2  1  0  0  0  0
  2 25  1  0  0  0  0
  2 24  1  0  0  0  0
  3  2  1  0  0  0  0
  3  4  1  0  0  0  0
  4 29  1  0  0  0  0
  4  5  1  0  0  0  0
  5  6  1  0  0  0  0
  6  7  2  0  0  0  0
  7  8  1  0  0  0  0
  7 30  1  0  0  0  0
  8 31  1  0  0  0  0
  9 12  1  0  0  0  0
  9  8  2  0  0  0  0
 10  9  1  0  0  0  0
 11 10  2  0  0  0  0
 11  6  1  0  0  0  0
 12 34  1  0  0  0  0
 13 14  1  0  0  0  0
 13 12  2  0  0  0  0
 14 15  1  0  0  0  0
 15 16  1  0  0  0  0
 16 36  1  0  0  0  0
 16 37  1  0  0  0  0
 17 15  2  0  0  0  0
 18 17  1  0  0  0  0
 19 18  2  0  0  0  0
 19 14  1  0  0  0  0
 20 19  1  0  0  0  0
 21  1  1  0  0  0  0
 23  1  1  0  0  0  0
 26  3  1  0  0  0  0
 27  3  1  0  0  0  0
 28  4  1  0  0  0  0
 32 10  1  0  0  0  0
 33 11  1  0  0  0  0
 35 16  1  0  0  0  0
 38 20  1  0  0  0  0
M  END
