25948058.xyz
 OpenBabel08132112093D
CCc1nnc(n1/N=C/c1ccc(cc1)O)S
 29 30  0  0  0  0  0  0  0  0999 V2000
   -0.6960    0.4362    6.3124 C   0  0  0  0  0  0  0  0  0  0  0  0
   -1.5207    0.0480    5.0852 C   0  0  0  0  0  0  0  0  0  0  0  0
   -0.6833   -0.0243    3.8465 C   0  0  0  0  0  0  0  0  0  0  0  0
    0.6220   -0.0007    3.8251 N   0  0  0  0  0  0  0  0  0  0  0  0
    1.0582    0.0000    2.5169 N   0  0  0  0  0  0  0  0  0  0  0  0
    0.0000   -0.0000    1.7543 C   0  0  0  0  0  0  0  0  0  0  0  0
   -1.1528   -0.0367    2.5275 N   0  0  0  0  0  0  0  0  0  0  0  0
   -2.3929    0.0298    1.9673 N   0  0  0  0  0  0  0  0  0  0  0  0
   -3.4146   -0.4184    2.6040 C   0  0  0  0  0  0  0  0  0  0  0  0
   -4.7609   -0.3369    2.0487 C   0  0  0  0  0  0  0  0  0  0  0  0
   -5.0312    0.3198    0.8329 C   0  0  0  0  0  0  0  0  0  0  0  0
   -6.3225    0.3687    0.3253 C   0  0  0  0  0  0  0  0  0  0  0  0
   -7.3821   -0.2365    1.0256 C   0  0  0  0  0  0  0  0  0  0  0  0
   -7.1280   -0.8881    2.2421 C   0  0  0  0  0  0  0  0  0  0  0  0
   -5.8322   -0.9320    2.7419 C   0  0  0  0  0  0  0  0  0  0  0  0
   -8.6556   -0.2152    0.5766 O   0  0  0  0  0  0  0  0  0  0  0  0
    0.0000    0.0000    0.0000 S   0  0  0  0  0  0  0  0  0  0  0  0
   -1.3335    0.4593    7.2089 H   0  0  0  0  0  0  0  0  0  0  0  0
   -0.2360    1.4259    6.1792 H   0  0  0  0  0  0  0  0  0  0  0  0
    0.1209   -0.2804    6.4737 H   0  0  0  0  0  0  0  0  0  0  0  0
   -2.3384    0.7731    4.9258 H   0  0  0  0  0  0  0  0  0  0  0  0
   -2.0110   -0.9260    5.2654 H   0  0  0  0  0  0  0  0  0  0  0  0
   -3.3238   -0.8988    3.5868 H   0  0  0  0  0  0  0  0  0  0  0  0
   -4.2101    0.7972    0.2961 H   0  0  0  0  0  0  0  0  0  0  0  0
   -6.5224    0.8832   -0.6194 H   0  0  0  0  0  0  0  0  0  0  0  0
   -7.9610   -1.3498    2.7743 H   0  0  0  0  0  0  0  0  0  0  0  0
   -5.6408   -1.4421    3.6899 H   0  0  0  0  0  0  0  0  0  0  0  0
   -8.7002    0.2589   -0.2646 H   0  0  0  0  0  0  0  0  0  0  0  0
   -1.3488    0.1041   -0.0678 H   0  0  0  0  0  0  0  0  0  0  0  0
  1 20  1  0  0  0  0
  1 18  1  0  0  0  0
  2 22  1  0  0  0  0
  2  1  1  0  0  0  0
  3  2  1  0  0  0  0
  4  3  2  0  0  0  0
  5  4  1  0  0  0  0
  6  5  2  0  0  0  0
  6  7  1  0  0  0  0
  7  3  1  0  0  0  0
  8  7  1  0  0  0  0
  8  9  2  0  0  0  0
  9 23  1  0  0  0  0
 10  9  1  0  0  0  0
 10 15  2  0  0  0  0
 11 10  1  0  0  0  0
 12 11  2  0  0  0  0
 12 13  1  0  0  0  0
 13 14  2  0  0  0  0
 14 15  1  0  0  0  0
 14 26  1  0  0  0  0
 15 27  1  0  0  0  0
 16 13  1  0  0  0  0
 17  6  1  0  0  0  0
 19  1  1  0  0  0  0
 21  2  1  0  0  0  0
 24 11  1  0  0  0  0
 25 12  1  0  0  0  0
 28 16  1  0  0  0  0
 29 17  1  0  0  0  0
M  END
