259632868.xyz
 OpenBabel08132112093D
CCn1nc(cc1S)c1ccnn1C
 26 27  0  0  0  0  0  0  0  0999 V2000
    3.1094   -1.4355    2.0912 C   0  0  0  0  0  0  0  0  0  0  0  0
    2.5266   -0.0265    2.0805 C   0  0  0  0  0  0  0  0  0  0  0  0
    1.1420   -0.0000    2.5269 N   0  0  0  0  0  0  0  0  0  0  0  0
    0.8717   -0.0784    3.8337 N   0  0  0  0  0  0  0  0  0  0  0  0
   -0.4649   -0.1245    3.9391 C   0  0  0  0  0  0  0  0  0  0  0  0
   -1.0635   -0.0811    2.6523 C   0  0  0  0  0  0  0  0  0  0  0  0
    0.0000   -0.0000    1.7664 C   0  0  0  0  0  0  0  0  0  0  0  0
    0.0000    0.0000    0.0000 S   0  0  0  0  0  0  0  0  0  0  0  0
   -1.1579   -0.2005    5.2171 C   0  0  0  0  0  0  0  0  0  0  0  0
   -2.5292   -0.2459    5.4697 C   0  0  0  0  0  0  0  0  0  0  0  0
   -2.6335   -0.3146    6.8736 C   0  0  0  0  0  0  0  0  0  0  0  0
   -1.4334   -0.3124    7.4502 N   0  0  0  0  0  0  0  0  0  0  0  0
   -0.5478   -0.2431    6.4437 N   0  0  0  0  0  0  0  0  0  0  0  0
    0.8691   -0.2260    6.7509 C   0  0  0  0  0  0  0  0  0  0  0  0
    2.5635   -2.0875    1.3922 H   0  0  0  0  0  0  0  0  0  0  0  0
    3.0416   -1.8700    3.0995 H   0  0  0  0  0  0  0  0  0  0  0  0
    4.1679   -1.4134    1.7890 H   0  0  0  0  0  0  0  0  0  0  0  0
    3.0899    0.6397    2.7500 H   0  0  0  0  0  0  0  0  0  0  0  0
    2.5496    0.3990    1.0681 H   0  0  0  0  0  0  0  0  0  0  0  0
   -2.1183   -0.0994    2.3955 H   0  0  0  0  0  0  0  0  0  0  0  0
    0.0527    1.3446   -0.1742 H   0  0  0  0  0  0  0  0  0  0  0  0
   -3.3285   -0.2303    4.7335 H   0  0  0  0  0  0  0  0  0  0  0  0
   -3.5319   -0.3653    7.4877 H   0  0  0  0  0  0  0  0  0  0  0  0
    1.3426    0.6846    6.3595 H   0  0  0  0  0  0  0  0  0  0  0  0
    1.3777   -1.0883    6.2981 H   0  0  0  0  0  0  0  0  0  0  0  0
    0.9523   -0.2634    7.8432 H   0  0  0  0  0  0  0  0  0  0  0  0
  1 16  1  0  0  0  0
  2  1  1  0  0  0  0
  2  3  1  0  0  0  0
  2 18  1  0  0  0  0
  3  4  1  0  0  0  0
  4  5  2  0  0  0  0
  5  9  1  0  0  0  0
  6  5  1  0  0  0  0
  7  3  1  0  0  0  0
  7  6  2  0  0  0  0
  8  7  1  0  0  0  0
  9 10  2  0  0  0  0
  9 13  1  0  0  0  0
 10 11  1  0  0  0  0
 11 12  2  0  0  0  0
 11 23  1  0  0  0  0
 13 14  1  0  0  0  0
 13 12  1  0  0  0  0
 14 26  1  0  0  0  0
 15  1  1  0  0  0  0
 17  1  1  0  0  0  0
 19  2  1  0  0  0  0
 20  6  1  0  0  0  0
 21  8  1  0  0  0  0
 22 10  1  0  0  0  0
 24 14  1  0  0  0  0
 25 14  1  0  0  0  0
M  END
