259767138.xyz
 OpenBabel08132112093D
CCCCn1c(S)nnc1C(C1CC1)C
 34 35  0  0  1  0  0  0  0  0999 V2000
    4.5829   -1.0372   -0.2063 C   0  0  0  0  0  0  0  0  0  0  0  0
    4.3962   -1.6347    1.1898 C   0  0  0  0  0  0  0  0  0  0  0  0
    2.9697   -1.5238    1.7370 C   0  0  0  0  0  0  0  0  0  0  0  0
    2.5192   -0.0817    1.9823 C   0  0  0  0  0  0  0  0  0  0  0  0
    1.1615    0.0000    2.4957 N   0  0  0  0  0  0  0  0  0  0  0  0
   -0.0000   -0.0000    1.7626 C   0  0  0  0  0  0  0  0  0  0  0  0
    0.0000    0.0000    0.0000 S   0  0  0  0  0  0  0  0  0  0  0  0
   -1.0479   -0.0066    2.5483 N   0  0  0  0  0  0  0  0  0  0  0  0
   -0.5803   -0.0204    3.8427 N   0  0  0  0  0  0  0  0  0  0  0  0
    0.7296   -0.0287    3.8088 C   0  0  0  0  0  0  0  0  0  0  0  0
    1.6419    0.0138    5.0019 C   0  0  2  0  0  0  0  0  0  0  0  0
    1.0133   -0.7199    6.1728 C   0  0  0  0  0  0  0  0  0  0  0  0
    1.8896   -1.2671    7.2668 C   0  0  0  0  0  0  0  0  0  0  0  0
    1.1889   -2.2052    6.3121 C   0  0  0  0  0  0  0  0  0  0  0  0
    1.9940    1.4671    5.3665 C   0  0  0  0  0  0  0  0  0  0  0  0
    5.6034   -1.2133   -0.5801 H   0  0  0  0  0  0  0  0  0  0  0  0
    3.8799   -1.4869   -0.9269 H   0  0  0  0  0  0  0  0  0  0  0  0
    4.4170    0.0520   -0.2194 H   0  0  0  0  0  0  0  0  0  0  0  0
    4.6750   -2.7014    1.1676 H   0  0  0  0  0  0  0  0  0  0  0  0
    5.0976   -1.1559    1.8973 H   0  0  0  0  0  0  0  0  0  0  0  0
    2.8874   -2.0784    2.6868 H   0  0  0  0  0  0  0  0  0  0  0  0
    2.2604   -1.9983    1.0373 H   0  0  0  0  0  0  0  0  0  0  0  0
    2.5583    0.5083    1.0542 H   0  0  0  0  0  0  0  0  0  0  0  0
    3.1896    0.4170    2.6982 H   0  0  0  0  0  0  0  0  0  0  0  0
   -1.3487    0.0729   -0.0554 H   0  0  0  0  0  0  0  0  0  0  0  0
    2.5762   -0.5125    4.7386 H   0  0  0  0  0  0  0  0  0  0  0  0
    0.0378   -0.3175    6.4603 H   0  0  0  0  0  0  0  0  0  0  0  0
    1.5339   -1.2091    8.2989 H   0  0  0  0  0  0  0  0  0  0  0  0
    2.9729   -1.1482    7.1623 H   0  0  0  0  0  0  0  0  0  0  0  0
    1.7980   -2.7193    5.5618 H   0  0  0  0  0  0  0  0  0  0  0  0
    0.3445   -2.7938    6.6791 H   0  0  0  0  0  0  0  0  0  0  0  0
    2.6849    1.4934    6.2230 H   0  0  0  0  0  0  0  0  0  0  0  0
    1.0805    2.0176    5.6381 H   0  0  0  0  0  0  0  0  0  0  0  0
    2.4656    1.9959    4.5229 H   0  0  0  0  0  0  0  0  0  0  0  0
  1  2  1  0  0  0  0
  2  3  1  0  0  0  0
  2 20  1  0  0  0  0
  3  4  1  0  0  0  0
  3 21  1  0  0  0  0
  4  5  1  0  0  0  0
  4 24  1  0  0  0  0
  5 10  1  0  0  0  0
  6  5  1  0  0  0  0
  6  8  2  0  0  0  0
  7  6  1  0  0  0  0
  8  9  1  0  0  0  0
 10  9  2  0  0  0  0
 10 11  1  0  0  0  0
 11 26  1  6  0  0  0
 11 15  1  0  0  0  0
 11 12  1  0  0  0  0
 12 14  1  0  0  0  0
 12 27  1  0  0  0  0
 12 13  1  0  0  0  0
 13 28  1  0  0  0  0
 14 31  1  0  0  0  0
 14 13  1  0  0  0  0
 15 33  1  0  0  0  0
 15 32  1  0  0  0  0
 16  1  1  0  0  0  0
 17  1  1  0  0  0  0
 18  1  1  0  0  0  0
 19  2  1  0  0  0  0
 22  3  1  0  0  0  0
 23  4  1  0  0  0  0
 25  7  1  0  0  0  0
 29 13  1  0  0  0  0
 30 14  1  0  0  0  0
 34 15  1  0  0  0  0
M  END
