259766825.xyz
 OpenBabel08132112093D
Sc1nnc(n1C1CCCCC1)c1ccsc1
 32 34  0  0  0  0  0  0  0  0999 V2000
    0.0000    0.0000    0.0000 S   0  0  0  0  0  0  0  0  0  0  0  0
   -0.0000   -0.0000    1.7624 C   0  0  0  0  0  0  0  0  0  0  0  0
    1.0659    0.0000    2.5261 N   0  0  0  0  0  0  0  0  0  0  0  0
    0.6304   -0.0070    3.8175 N   0  0  0  0  0  0  0  0  0  0  0  0
   -0.6899   -0.0198    3.8251 C   0  0  0  0  0  0  0  0  0  0  0  0
   -1.1519   -0.0077    2.5120 N   0  0  0  0  0  0  0  0  0  0  0  0
   -2.5011    0.0707    1.9452 C   0  0  0  0  0  0  0  0  0  0  0  0
   -3.3022    1.2770    2.4485 C   0  0  0  0  0  0  0  0  0  0  0  0
   -4.5898    1.4456    1.6167 C   0  0  0  0  0  0  0  0  0  0  0  0
   -5.1986    0.0946    1.1717 C   0  0  0  0  0  0  0  0  0  0  0  0
   -4.7915   -1.0444    2.1108 C   0  0  0  0  0  0  0  0  0  0  0  0
   -3.2711   -1.2663    2.0694 C   0  0  0  0  0  0  0  0  0  0  0  0
   -1.4378   -0.0315    5.0837 C   0  0  0  0  0  0  0  0  0  0  0  0
   -0.7622    0.3430    6.3006 C   0  0  0  0  0  0  0  0  0  0  0  0
   -1.5621    0.2568    7.4048 C   0  0  0  0  0  0  0  0  0  0  0  0
   -3.1562   -0.2893    7.0023 S   0  0  0  0  0  0  0  0  0  0  0  0
   -2.7450   -0.4046    5.3287 C   0  0  0  0  0  0  0  0  0  0  0  0
    1.3499    0.0584   -0.0454 H   0  0  0  0  0  0  0  0  0  0  0  0
   -2.3340    0.2561    0.8737 H   0  0  0  0  0  0  0  0  0  0  0  0
   -3.5467    1.1512    3.5110 H   0  0  0  0  0  0  0  0  0  0  0  0
   -2.6752    2.1787    2.3802 H   0  0  0  0  0  0  0  0  0  0  0  0
   -5.3217    2.0105    2.2153 H   0  0  0  0  0  0  0  0  0  0  0  0
   -4.3808    2.0624    0.7277 H   0  0  0  0  0  0  0  0  0  0  0  0
   -6.2949    0.1741    1.1101 H   0  0  0  0  0  0  0  0  0  0  0  0
   -4.8545   -0.1555    0.1529 H   0  0  0  0  0  0  0  0  0  0  0  0
   -5.1140   -0.7966    3.1377 H   0  0  0  0  0  0  0  0  0  0  0  0
   -5.3122   -1.9777    1.8462 H   0  0  0  0  0  0  0  0  0  0  0  0
   -3.0049   -1.8997    1.2084 H   0  0  0  0  0  0  0  0  0  0  0  0
   -2.9303   -1.8137    2.9599 H   0  0  0  0  0  0  0  0  0  0  0  0
    0.2806    0.6559    6.3080 H   0  0  0  0  0  0  0  0  0  0  0  0
   -1.3069    0.4885    8.4375 H   0  0  0  0  0  0  0  0  0  0  0  0
   -3.4929   -0.7662    4.6326 H   0  0  0  0  0  0  0  0  0  0  0  0
  1  2  1  0  0  0  0
  2  6  1  0  0  0  0
  2  3  2  0  0  0  0
  3  4  1  0  0  0  0
  4  5  2  0  0  0  0
  5 13  1  0  0  0  0
  6  5  1  0  0  0  0
  7 12  1  0  0  0  0
  7  8  1  0  0  0  0
  7  6  1  0  0  0  0
  8 20  1  0  0  0  0
  9 22  1  0  0  0  0
  9  8  1  0  0  0  0
 10  9  1  0  0  0  0
 10 11  1  0  0  0  0
 11 26  1  0  0  0  0
 12 11  1  0  0  0  0
 12 29  1  0  0  0  0
 13 17  2  0  0  0  0
 13 14  1  0  0  0  0
 14 30  1  0  0  0  0
 14 15  2  0  0  0  0
 15 31  1  0  0  0  0
 16 15  1  0  0  0  0
 17 16  1  0  0  0  0
 18  1  1  0  0  0  0
 19  7  1  0  0  0  0
 21  8  1  0  0  0  0
 23  9  1  0  0  0  0
 24 10  1  0  0  0  0
 25 10  1  0  0  0  0
 27 11  1  0  0  0  0
 28 12  1  0  0  0  0
 32 17  1  0  0  0  0
M  END
