260006766.xyz
 OpenBabel08132112093D
COc1cc(S)c(c(c1)Cl)F
 17 17  0  0  0  0  0  0  0  0999 V2000
    3.6528   -0.0009    3.9045 C   0  0  0  0  0  0  0  0  0  0  0  0
    2.4123   -0.0003    4.5747 O   0  0  0  0  0  0  0  0  0  0  0  0
    1.2709   -0.0000    3.8462 C   0  0  0  0  0  0  0  0  0  0  0  0
    1.2336   -0.0000    2.4467 C   0  0  0  0  0  0  0  0  0  0  0  0
   -0.0000    0.0000    1.7730 C   0  0  0  0  0  0  0  0  0  0  0  0
    0.0000    0.0000    0.0000 S   0  0  0  0  0  0  0  0  0  0  0  0
   -1.1848    0.0000    2.5126 C   0  0  0  0  0  0  0  0  0  0  0  0
   -1.1421   -0.0000    3.9116 C   0  0  0  0  0  0  0  0  0  0  0  0
    0.0750   -0.0000    4.5836 C   0  0  0  0  0  0  0  0  0  0  0  0
   -2.6382   -0.0000    4.7977 Cl  0  0  0  0  0  0  0  0  0  0  0  0
   -2.3690   -0.0000    1.8807 F   0  0  0  0  0  0  0  0  0  0  0  0
    4.4277   -0.0013    4.6819 H   0  0  0  0  0  0  0  0  0  0  0  0
    3.7772    0.8973    3.2735 H   0  0  0  0  0  0  0  0  0  0  0  0
    3.7762   -0.8992    3.2735 H   0  0  0  0  0  0  0  0  0  0  0  0
    2.1499   -0.0001    1.8585 H   0  0  0  0  0  0  0  0  0  0  0  0
   -1.3427   -0.0016   -0.1416 H   0  0  0  0  0  0  0  0  0  0  0  0
    0.1119   -0.0001    5.6720 H   0  0  0  0  0  0  0  0  0  0  0  0
  1  2  1  0  0  0  0
  1 12  1  0  0  0  0
  3  2  1  0  0  0  0
  3  9  2  0  0  0  0
  4  3  1  0  0  0  0
  5  4  2  0  0  0  0
  5  7  1  0  0  0  0
  6  5  1  0  0  0  0
  7  8  2  0  0  0  0
  8  9  1  0  0  0  0
  8 10  1  0  0  0  0
  9 17  1  0  0  0  0
 11  7  1  0  0  0  0
 13  1  1  0  0  0  0
 14  1  1  0  0  0  0
 15  4  1  0  0  0  0
 16  6  1  0  0  0  0
M  END
