260334383.xyz
 OpenBabel08132112093D
CCC1(CCC1)n1c(S)nc2c1cc(F)cc2F
 32 34  0  0  1  0  0  0  0  0999 V2000
    2.8069    2.5181    2.7419 C   0  0  0  0  0  0  0  0  0  0  0  0
    2.9032    1.5128    1.5976 C   0  0  0  0  0  0  0  0  0  0  0  0
    2.5431    0.0670    1.9751 C   0  0  0  0  0  0  0  0  0  0  0  0
    3.6292   -0.6469    2.8311 C   0  0  0  0  0  0  0  0  0  0  0  0
    4.2099   -1.2593    1.5374 C   0  0  0  0  0  0  0  0  0  0  0  0
    2.8750   -0.9360    0.8288 C   0  0  0  0  0  0  0  0  0  0  0  0
    1.1765   -0.0000    2.5046 N   0  0  0  0  0  0  0  0  0  0  0  0
    0.0000    0.0000    1.7653 C   0  0  0  0  0  0  0  0  0  0  0  0
    0.0000    0.0000    0.0000 S   0  0  0  0  0  0  0  0  0  0  0  0
   -1.0858    0.0180    2.4933 N   0  0  0  0  0  0  0  0  0  0  0  0
   -0.6368    0.0536    3.7976 C   0  0  0  0  0  0  0  0  0  0  0  0
    0.7831    0.0582    3.8388 C   0  0  2  0  0  0  0  0  0  0  0  0
    1.5013    0.1335    5.0409 C   0  0  0  0  0  0  0  0  0  0  0  0
    0.7383    0.1825    6.2011 C   0  0  0  0  0  0  0  0  0  0  0  0
    1.3745    0.2574    7.3814 F   0  0  0  0  0  0  0  0  0  0  0  0
   -0.6649    0.1636    6.2130 C   0  0  0  0  0  0  0  0  0  0  0  0
   -1.3477    0.1018    5.0055 C   0  0  0  0  0  0  0  0  0  0  0  0
   -2.6813    0.0953    4.9965 F   0  0  0  0  0  0  0  0  0  0  0  0
    3.1082    3.5206    2.4017 H   0  0  0  0  0  0  0  0  0  0  0  0
    3.4605    2.2440    3.5849 H   0  0  0  0  0  0  0  0  0  0  0  0
    1.7797    2.5921    3.1290 H   0  0  0  0  0  0  0  0  0  0  0  0
    3.9250    1.5085    1.1828 H   0  0  0  0  0  0  0  0  0  0  0  0
    2.2381    1.8198    0.7728 H   0  0  0  0  0  0  0  0  0  0  0  0
    4.2819   -0.0050    3.4404 H   0  0  0  0  0  0  0  0  0  0  0  0
    3.1860   -1.4184    3.4739 H   0  0  0  0  0  0  0  0  0  0  0  0
    4.5044   -2.3170    1.5809 H   0  0  0  0  0  0  0  0  0  0  0  0
    5.0529   -0.6797    1.1345 H   0  0  0  0  0  0  0  0  0  0  0  0
    2.9169   -0.5208   -0.1882 H   0  0  0  0  0  0  0  0  0  0  0  0
    2.1890   -1.7940    0.8355 H   0  0  0  0  0  0  0  0  0  0  0  0
   -1.3474    0.0980   -0.0416 H   0  0  0  0  0  0  0  0  0  0  0  0
    2.5847    0.1728    5.1075 H   0  0  0  0  0  0  0  0  0  0  0  0
   -1.2085    0.2046    7.1567 H   0  0  0  0  0  0  0  0  0  0  0  0
  1 21  1  0  0  0  0
  1 20  1  0  0  0  0
  2  3  1  0  0  0  0
  2  1  1  0  0  0  0
  3  7  1  0  0  0  0
  3  4  1  0  0  0  0
  4 24  1  0  0  0  0
  4 25  1  0  0  0  0
  5 26  1  0  0  0  0
  5  4  1  0  0  0  0
  6 29  1  0  0  0  0
  6  5  1  0  0  0  0
  6  3  1  0  0  0  0
  7 12  1  0  0  0  0
  8 10  2  0  0  0  0
  8  7  1  0  0  0  0
  9  8  1  0  0  0  0
 10 11  2  0  0  0  0
 11 17  1  0  0  0  0
 12 11  1  6  0  0  0
 12 13  1  0  0  0  0
 13 31  1  0  0  0  0
 13 14  2  0  0  0  0
 14 16  1  0  0  0  0
 14 15  1  0  0  0  0
 16 32  1  0  0  0  0
 17 16  2  0  0  0  0
 18 17  1  0  0  0  0
 19  1  1  0  0  0  0
 22  2  1  0  0  0  0
 23  2  1  0  0  0  0
 27  5  1  0  0  0  0
 28  6  1  0  0  0  0
 30  9  1  0  0  0  0
M  RAD  1  12   2
M  END
