260685367.xyz
 OpenBabel08132112093D
SCC1(CC1)Cn1cc([N+](=O)[O-])c(cc1=O)C
 31 32  0  0  0  0  0  0  0  0999 V2000
    0.0000    0.0000    0.0000 S   0  0  0  0  0  0  0  0  0  0  0  0
    0.0000    0.0000    1.8359 C   0  0  0  0  0  0  0  0  0  0  0  0
    1.3914    0.0000    2.4458 C   0  0  0  0  0  0  0  0  0  0  0  0
    1.5758   -0.6939    3.7764 C   0  0  0  0  0  0  0  0  0  0  0  0
    2.1037   -1.3300    2.5180 C   0  0  0  0  0  0  0  0  0  0  0  0
    2.2425    1.2274    2.1579 C   0  0  0  0  0  0  0  0  0  0  0  0
    1.9328    2.3819    3.0199 N   0  0  0  0  0  0  0  0  0  0  0  0
    2.6026    2.5561    4.1707 C   0  0  0  0  0  0  0  0  0  0  0  0
    2.3454    3.5991    5.0306 C   0  0  0  0  0  0  0  0  0  0  0  0
    3.1636    3.6436    6.2362 N   0  0  0  0  0  0  0  0  0  0  0  0
    3.9875    2.7516    6.4034 O   0  0  0  0  0  0  0  0  0  0  0  0
    2.9859    4.5650    7.0205 O   0  0  0  0  0  0  0  0  0  0  0  0
    1.3296    4.5692    4.7076 C   0  0  0  0  0  0  0  0  0  0  0  0
    0.6628    4.3762    3.5246 C   0  0  0  0  0  0  0  0  0  0  0  0
    0.8994    3.2808    2.6078 C   0  0  0  0  0  0  0  0  0  0  0  0
    0.3017    3.0803    1.5633 O   0  0  0  0  0  0  0  0  0  0  0  0
    0.9815    5.7431    5.5789 C   0  0  0  0  0  0  0  0  0  0  0  0
    0.4918   -1.2539   -0.1421 H   0  0  0  0  0  0  0  0  0  0  0  0
   -0.5499    0.9119    2.1012 H   0  0  0  0  0  0  0  0  0  0  0  0
   -0.5763   -0.8632    2.1996 H   0  0  0  0  0  0  0  0  0  0  0  0
    0.6909   -1.1296    4.2480 H   0  0  0  0  0  0  0  0  0  0  0  0
    2.2949   -0.2833    4.4907 H   0  0  0  0  0  0  0  0  0  0  0  0
    1.5814   -2.2056    2.1220 H   0  0  0  0  0  0  0  0  0  0  0  0
    3.1857   -1.3503    2.3609 H   0  0  0  0  0  0  0  0  0  0  0  0
    3.3055    0.9961    2.3045 H   0  0  0  0  0  0  0  0  0  0  0  0
    2.0849    1.5408    1.1175 H   0  0  0  0  0  0  0  0  0  0  0  0
    3.3867    1.8425    4.4188 H   0  0  0  0  0  0  0  0  0  0  0  0
   -0.1188    5.0691    3.2110 H   0  0  0  0  0  0  0  0  0  0  0  0
    0.6682    5.4148    6.5800 H   0  0  0  0  0  0  0  0  0  0  0  0
    1.8548    6.3913    5.7371 H   0  0  0  0  0  0  0  0  0  0  0  0
    0.1734    6.3246    5.1150 H   0  0  0  0  0  0  0  0  0  0  0  0
  1  2  1  0  0  0  0
  2 19  1  0  0  0  0
  2 20  1  0  0  0  0
  2  3  1  0  0  0  0
  3  5  1  0  0  0  0
  3  4  1  0  0  0  0
  4 21  1  0  0  0  0
  4 22  1  0  0  0  0
  5  4  1  0  0  0  0
  6 25  1  0  0  0  0
  6  3  1  0  0  0  0
  6  7  1  0  0  0  0
  7  8  1  0  0  0  0
  8 27  1  0  0  0  0
  8  9  2  0  0  0  0
  9 10  1  0  0  0  0
 10 11  2  0  0  0  0
 10 12  2  0  0  0  0
 13  9  1  0  0  0  0
 13 17  1  0  0  0  0
 14 13  2  0  0  0  0
 15  7  1  0  0  0  0
 15 14  1  0  0  0  0
 16 15  2  0  0  0  0
 17 30  1  0  0  0  0
 17 29  1  0  0  0  0
 18  1  1  0  0  0  0
 23  5  1  0  0  0  0
 24  5  1  0  0  0  0
 26  6  1  0  0  0  0
 28 14  1  0  0  0  0
 31 17  1  0  0  0  0
M  END
