260771072.xyz
 OpenBabel08132112093D
FC(Oc1ccc(cc1)n1cc(nc1S)C)F
 27 28  0  0  0  0  0  0  0  0999 V2000
    7.7190    1.3480    1.7668 F   0  0  0  0  0  0  0  0  0  0  0  0
    7.1733    1.0715    0.5540 C   0  0  0  0  0  0  0  0  0  0  0  0
    6.4184   -0.0670    0.6094 O   0  0  0  0  0  0  0  0  0  0  0  0
    5.1371    0.0029    1.1084 C   0  0  0  0  0  0  0  0  0  0  0  0
    4.7423    0.9254    2.0843 C   0  0  0  0  0  0  0  0  0  0  0  0
    3.4185    0.9282    2.5271 C   0  0  0  0  0  0  0  0  0  0  0  0
    2.5001   -0.0032    2.0311 C   0  0  0  0  0  0  0  0  0  0  0  0
    2.9153   -0.9452    1.0787 C   0  0  0  0  0  0  0  0  0  0  0  0
    4.2246   -0.9311    0.6077 C   0  0  0  0  0  0  0  0  0  0  0  0
    1.1645    0.0000    2.5060 N   0  0  0  0  0  0  0  0  0  0  0  0
    0.7686    0.0657    3.8437 C   0  0  0  0  0  0  0  0  0  0  0  0
   -0.6050    0.0902    3.8361 C   0  0  0  0  0  0  0  0  0  0  0  0
   -1.0645    0.0518    2.5317 N   0  0  0  0  0  0  0  0  0  0  0  0
    0.0000    0.0000    1.7691 C   0  0  0  0  0  0  0  0  0  0  0  0
    0.0000    0.0000    0.0000 S   0  0  0  0  0  0  0  0  0  0  0  0
   -1.5483    0.1385    4.9931 C   0  0  0  0  0  0  0  0  0  0  0  0
    8.1759    0.8390   -0.2973 F   0  0  0  0  0  0  0  0  0  0  0  0
    6.5887    1.9521    0.2295 H   0  0  0  0  0  0  0  0  0  0  0  0
    5.4596    1.6279    2.5077 H   0  0  0  0  0  0  0  0  0  0  0  0
    3.0936    1.6612    3.2671 H   0  0  0  0  0  0  0  0  0  0  0  0
    2.2089   -1.6889    0.7078 H   0  0  0  0  0  0  0  0  0  0  0  0
    4.5633   -1.6477   -0.1419 H   0  0  0  0  0  0  0  0  0  0  0  0
    1.4976    0.0460    4.6487 H   0  0  0  0  0  0  0  0  0  0  0  0
   -1.3425    0.1473   -0.0427 H   0  0  0  0  0  0  0  0  0  0  0  0
   -2.1978    1.0268    4.9308 H   0  0  0  0  0  0  0  0  0  0  0  0
   -2.2089   -0.7438    4.9974 H   0  0  0  0  0  0  0  0  0  0  0  0
   -1.0056    0.1707    5.9489 H   0  0  0  0  0  0  0  0  0  0  0  0
  2  3  1  0  0  0  0
  2  1  1  0  0  0  0
  3  4  1  0  0  0  0
  4  5  2  0  0  0  0
  5 19  1  0  0  0  0
  5  6  1  0  0  0  0
  6 20  1  0  0  0  0
  7 10  1  0  0  0  0
  7  6  2  0  0  0  0
  8  7  1  0  0  0  0
  9  8  2  0  0  0  0
  9  4  1  0  0  0  0
 10 11  1  0  0  0  0
 11 23  1  0  0  0  0
 12 11  1  0  0  0  0
 12 16  1  0  0  0  0
 13 12  2  0  0  0  0
 14 10  1  0  0  0  0
 14 13  2  0  0  0  0
 15 14  1  0  0  0  0
 16 26  1  0  0  0  0
 16 27  1  0  0  0  0
 17  2  1  0  0  0  0
 18  2  1  0  0  0  0
 21  8  1  0  0  0  0
 22  9  1  0  0  0  0
 24 15  1  0  0  0  0
 25 16  1  0  0  0  0
M  RAD  1  11   2
M  END
