261307524.xyz
 OpenBabel08132112093D
CCc1nn(cc1Cn1cnnc1S)C
 28 29  0  0  0  0  0  0  0  0999 V2000
   -5.2211   -0.7461   -0.4312 C   0  0  0  0  0  0  0  0  0  0  0  0
   -3.8926   -0.1868   -0.9567 C   0  0  0  0  0  0  0  0  0  0  0  0
   -3.4201    1.0265   -0.2136 C   0  0  0  0  0  0  0  0  0  0  0  0
   -3.5206    2.2448   -0.7448 N   0  0  0  0  0  0  0  0  0  0  0  0
   -3.0227    3.0888    0.1737 N   0  0  0  0  0  0  0  0  0  0  0  0
   -2.6039    2.4467    1.2926 C   0  0  0  0  0  0  0  0  0  0  0  0
   -2.8488    1.0943    1.0904 C   0  0  0  0  0  0  0  0  0  0  0  0
   -2.5305   -0.0416    2.0136 C   0  0  0  0  0  0  0  0  0  0  0  0
   -1.1546   -0.0030    2.5018 N   0  0  0  0  0  0  0  0  0  0  0  0
   -0.7095   -0.0003    3.8026 C   0  0  0  0  0  0  0  0  0  0  0  0
    0.5967   -0.0022    3.8435 N   0  0  0  0  0  0  0  0  0  0  0  0
    1.0534   -0.0000    2.5470 N   0  0  0  0  0  0  0  0  0  0  0  0
   -0.0000    0.0000    1.7610 C   0  0  0  0  0  0  0  0  0  0  0  0
    0.0000    0.0000    0.0000 S   0  0  0  0  0  0  0  0  0  0  0  0
   -2.9469    4.5030   -0.1214 C   0  0  0  0  0  0  0  0  0  0  0  0
   -5.5379   -1.6270   -1.0115 H   0  0  0  0  0  0  0  0  0  0  0  0
   -6.0164    0.0125   -0.4976 H   0  0  0  0  0  0  0  0  0  0  0  0
   -5.1423   -1.0515    0.6250 H   0  0  0  0  0  0  0  0  0  0  0  0
   -3.9964    0.0925   -2.0159 H   0  0  0  0  0  0  0  0  0  0  0  0
   -3.1129   -0.9668   -0.9107 H   0  0  0  0  0  0  0  0  0  0  0  0
   -2.1479    2.9777    2.1258 H   0  0  0  0  0  0  0  0  0  0  0  0
   -3.1774   -0.0450    2.9047 H   0  0  0  0  0  0  0  0  0  0  0  0
   -2.6967   -0.9989    1.4950 H   0  0  0  0  0  0  0  0  0  0  0  0
   -1.3830    0.0055    4.6586 H   0  0  0  0  0  0  0  0  0  0  0  0
    1.3025   -0.3649   -0.0513 H   0  0  0  0  0  0  0  0  0  0  0  0
   -3.9460    4.8890   -0.3709 H   0  0  0  0  0  0  0  0  0  0  0  0
   -2.5603    5.0343    0.7579 H   0  0  0  0  0  0  0  0  0  0  0  0
   -2.2763    4.6788   -0.9761 H   0  0  0  0  0  0  0  0  0  0  0  0
  1 18  1  0  0  0  0
  2 20  1  0  0  0  0
  2  1  1  0  0  0  0
  2  3  1  0  0  0  0
  3  7  1  0  0  0  0
  4  3  2  0  0  0  0
  4  5  1  0  0  0  0
  5  6  1  0  0  0  0
  6 21  1  0  0  0  0
  7  6  2  0  0  0  0
  7  8  1  0  0  0  0
  8  9  1  0  0  0  0
  8 22  1  0  0  0  0
  9 10  1  0  0  0  0
 10 11  2  0  0  0  0
 10 24  1  0  0  0  0
 12 11  1  0  0  0  0
 13  9  1  0  0  0  0
 13 12  2  0  0  0  0
 14 13  1  0  0  0  0
 15  5  1  0  0  0  0
 15 27  1  0  0  0  0
 16  1  1  0  0  0  0
 17  1  1  0  0  0  0
 19  2  1  0  0  0  0
 23  8  1  0  0  0  0
 25 14  1  0  0  0  0
 26 15  1  0  0  0  0
 28 15  1  0  0  0  0
M  END
