261657923.xyz
 OpenBabel08132112093D
[O-][N+](=O)c1cc(Br)c(c(c1)Br)S
 15 15  0  0  0  0  0  0  0  0999 V2000
    0.7790   -0.0007    6.6607 O   0  0  0  0  0  0  0  0  0  0  0  0
   -0.2681   -0.0003    6.0342 N   0  0  0  0  0  0  0  0  0  0  0  0
   -1.3841   -0.0001    6.5271 O   0  0  0  0  0  0  0  0  0  0  0  0
   -0.1781   -0.0001    4.5638 C   0  0  0  0  0  0  0  0  0  0  0  0
   -1.3509   -0.0001    3.8134 C   0  0  0  0  0  0  0  0  0  0  0  0
   -1.2499   -0.0001    2.4275 C   0  0  0  0  0  0  0  0  0  0  0  0
   -2.8576   -0.0003    1.4135 Br  0  0  0  0  0  0  0  0  0  0  0  0
    0.0000   -0.0000    1.7589 C   0  0  0  0  0  0  0  0  0  0  0  0
    1.1590    0.0000    2.5751 C   0  0  0  0  0  0  0  0  0  0  0  0
    1.0779   -0.0001    3.9647 C   0  0  0  0  0  0  0  0  0  0  0  0
    2.9102    0.0004    1.8198 Br  0  0  0  0  0  0  0  0  0  0  0  0
    0.0000    0.0000    0.0000 S   0  0  0  0  0  0  0  0  0  0  0  0
   -2.3161   -0.0002    4.3161 H   0  0  0  0  0  0  0  0  0  0  0  0
    1.9696   -0.0002    4.5886 H   0  0  0  0  0  0  0  0  0  0  0  0
    1.3482   -0.0000   -0.1206 H   0  0  0  0  0  0  0  0  0  0  0  0
  2  3  2  0  0  0  0
  2  1  2  0  0  0  0
  4  2  1  0  0  0  0
  5 13  1  0  0  0  0
  5  4  2  0  0  0  0
  6  5  1  0  0  0  0
  7  6  1  0  0  0  0
  8  6  2  0  0  0  0
  8  9  1  0  0  0  0
  9 10  2  0  0  0  0
 10  4  1  0  0  0  0
 10 14  1  0  0  0  0
 11  9  1  0  0  0  0
 12  8  1  0  0  0  0
 15 12  1  0  0  0  0
M  END
