261619155.xyz
 OpenBabel08132112093D
Cc1cc2n(n1)ccn(c2=O)CCCCCCS
 37 38  0  0  0  0  0  0  0  0999 V2000
    4.0511   -2.6289   12.2453 C   0  0  0  0  0  0  0  0  0  0  0  0
    3.7418   -2.5790   10.7819 C   0  0  0  0  0  0  0  0  0  0  0  0
    4.6457   -2.6204    9.6952 C   0  0  0  0  0  0  0  0  0  0  0  0
    3.8443   -2.5426    8.5620 C   0  0  0  0  0  0  0  0  0  0  0  0
    2.5475   -2.4618    9.0220 N   0  0  0  0  0  0  0  0  0  0  0  0
    2.4710   -2.4824   10.3553 N   0  0  0  0  0  0  0  0  0  0  0  0
    1.4620   -2.3740    8.1668 C   0  0  0  0  0  0  0  0  0  0  0  0
    1.7109   -2.3611    6.8383 C   0  0  0  0  0  0  0  0  0  0  0  0
    2.9939   -2.4327    6.3191 N   0  0  0  0  0  0  0  0  0  0  0  0
    4.1347   -2.5305    7.1318 C   0  0  0  0  0  0  0  0  0  0  0  0
    5.2574   -2.5950    6.6563 O   0  0  0  0  0  0  0  0  0  0  0  0
    3.2153   -2.3724    4.8709 C   0  0  0  0  0  0  0  0  0  0  0  0
    3.6810   -0.9942    4.3918 C   0  0  0  0  0  0  0  0  0  0  0  0
    2.7109    0.1579    4.6741 C   0  0  0  0  0  0  0  0  0  0  0  0
    1.3375    0.0600    3.9968 C   0  0  0  0  0  0  0  0  0  0  0  0
    1.3882    0.0000    2.4676 C   0  0  0  0  0  0  0  0  0  0  0  0
   -0.0000   -0.0000    1.8345 C   0  0  0  0  0  0  0  0  0  0  0  0
    0.0000    0.0000    0.0000 S   0  0  0  0  0  0  0  0  0  0  0  0
    3.5626   -3.4936   12.7221 H   0  0  0  0  0  0  0  0  0  0  0  0
    5.1340   -2.7071   12.4133 H   0  0  0  0  0  0  0  0  0  0  0  0
    3.6849   -1.7245   12.7567 H   0  0  0  0  0  0  0  0  0  0  0  0
    5.7291   -2.6953    9.7167 H   0  0  0  0  0  0  0  0  0  0  0  0
    0.4757   -2.3260    8.6207 H   0  0  0  0  0  0  0  0  0  0  0  0
    0.9004   -2.2974    6.1149 H   0  0  0  0  0  0  0  0  0  0  0  0
    3.9852   -3.1168    4.6265 H   0  0  0  0  0  0  0  0  0  0  0  0
    2.2790   -2.6764    4.3807 H   0  0  0  0  0  0  0  0  0  0  0  0
    3.8857   -1.0696    3.3106 H   0  0  0  0  0  0  0  0  0  0  0  0
    4.6495   -0.7851    4.8700 H   0  0  0  0  0  0  0  0  0  0  0  0
    3.1930    1.0989    4.3578 H   0  0  0  0  0  0  0  0  0  0  0  0
    2.5661    0.2498    5.7642 H   0  0  0  0  0  0  0  0  0  0  0  0
    0.7842   -0.8192    4.3733 H   0  0  0  0  0  0  0  0  0  0  0  0
    0.7353    0.9336    4.3015 H   0  0  0  0  0  0  0  0  0  0  0  0
    1.9281   -0.9049    2.1394 H   0  0  0  0  0  0  0  0  0  0  0  0
    1.9642    0.8554    2.0754 H   0  0  0  0  0  0  0  0  0  0  0  0
   -0.5488    0.9162    2.1058 H   0  0  0  0  0  0  0  0  0  0  0  0
   -0.6022   -0.8478    2.1988 H   0  0  0  0  0  0  0  0  0  0  0  0
    0.5835   -1.2118   -0.1529 H   0  0  0  0  0  0  0  0  0  0  0  0
  1 20  1  0  0  0  0
  1 19  1  0  0  0  0
  1 21  1  0  0  0  0
  2  1  1  0  0  0  0
  3 22  1  0  0  0  0
  3  2  1  0  0  0  0
  4  5  1  0  0  0  0
  4  3  2  0  0  0  0
  5  6  1  0  0  0  0
  6  2  2  0  0  0  0
  7 23  1  0  0  0  0
  7  5  1  0  0  0  0
  8  7  2  0  0  0  0
  9  8  1  0  0  0  0
  9 10  1  0  0  0  0
 10  4  1  0  0  0  0
 11 10  2  0  0  0  0
 12  9  1  0  0  0  0
 13 14  1  0  0  0  0
 13 28  1  0  0  0  0
 13 12  1  0  0  0  0
 14 30  1  0  0  0  0
 15 32  1  0  0  0  0
 15 31  1  0  0  0  0
 15 14  1  0  0  0  0
 16 15  1  0  0  0  0
 17 35  1  0  0  0  0
 17 36  1  0  0  0  0
 17 16  1  0  0  0  0
 18 17  1  0  0  0  0
 24  8  1  0  0  0  0
 25 12  1  0  0  0  0
 26 12  1  0  0  0  0
 27 13  1  0  0  0  0
 29 14  1  0  0  0  0
 33 16  1  0  0  0  0
 34 16  1  0  0  0  0
 37 18  1  0  0  0  0
M  END
