261994718.xyz
 OpenBabel08132112093D
SCC(=C)Cn1cccc(c1=O)Br
 23 23  0  0  0  0  0  0  0  0999 V2000
    0.0000    0.0000    0.0000 S   0  0  0  0  0  0  0  0  0  0  0  0
    0.0000    0.0000    1.8552 C   0  0  0  0  0  0  0  0  0  0  0  0
    1.4046   -0.0000    2.3951 C   0  0  0  0  0  0  0  0  0  0  0  0
    1.8583    0.9839    3.1796 C   0  0  0  0  0  0  0  0  0  0  0  0
    2.2818   -1.1826    2.0410 C   0  0  0  0  0  0  0  0  0  0  0  0
    1.7116   -2.4537    2.5054 N   0  0  0  0  0  0  0  0  0  0  0  0
    0.9425   -3.2058    1.6646 C   0  0  0  0  0  0  0  0  0  0  0  0
    0.3580   -4.3692    2.0806 C   0  0  0  0  0  0  0  0  0  0  0  0
    0.5658   -4.7931    3.4224 C   0  0  0  0  0  0  0  0  0  0  0  0
    1.3358   -4.0436    4.2698 C   0  0  0  0  0  0  0  0  0  0  0  0
    1.9729   -2.7924    3.8587 C   0  0  0  0  0  0  0  0  0  0  0  0
    2.6688   -2.0718    4.5531 O   0  0  0  0  0  0  0  0  0  0  0  0
    1.6343   -4.5747    6.0595 Br  0  0  0  0  0  0  0  0  0  0  0  0
   -1.2598   -0.4682   -0.1516 H   0  0  0  0  0  0  0  0  0  0  0  0
   -0.5504    0.8773    2.2204 H   0  0  0  0  0  0  0  0  0  0  0  0
   -0.5323   -0.9051    2.1868 H   0  0  0  0  0  0  0  0  0  0  0  0
    1.2389    1.8524    3.4199 H   0  0  0  0  0  0  0  0  0  0  0  0
    2.8565    0.9384    3.6209 H   0  0  0  0  0  0  0  0  0  0  0  0
    3.2652   -1.0696    2.5097 H   0  0  0  0  0  0  0  0  0  0  0  0
    2.4039   -1.2572    0.9512 H   0  0  0  0  0  0  0  0  0  0  0  0
    0.8153   -2.8022    0.6583 H   0  0  0  0  0  0  0  0  0  0  0  0
   -0.2492   -4.9561    1.3922 H   0  0  0  0  0  0  0  0  0  0  0  0
    0.1114   -5.7186    3.7820 H   0  0  0  0  0  0  0  0  0  0  0  0
  1  2  1  0  0  0  0
  2 16  1  0  0  0  0
  2 15  1  0  0  0  0
  2  3  1  0  0  0  0
  3  4  2  0  0  0  0
  4 17  1  0  0  0  0
  4 18  1  0  0  0  0
  5  3  1  0  0  0  0
  5  6  1  0  0  0  0
  5 19  1  0  0  0  0
  6 11  1  0  0  0  0
  7  8  2  0  0  0  0
  7  6  1  0  0  0  0
  8  9  1  0  0  0  0
  9 23  1  0  0  0  0
  9 10  2  0  0  0  0
 10 13  1  0  0  0  0
 11 10  1  0  0  0  0
 11 12  2  0  0  0  0
 14  1  1  0  0  0  0
 20  5  1  0  0  0  0
 21  7  1  0  0  0  0
 22  8  1  0  0  0  0
M  END
