262893550.xyz
 OpenBabel08132112093D
SCCC(=O)N1CC2C(C1)CC=CC2
 31 32  0  0  1  0  0  0  0  0999 V2000
    0.0000    0.0000    0.0000 S   0  0  0  0  0  0  0  0  0  0  0  0
   -0.0000   -0.0000    1.8356 C   0  0  0  0  0  0  0  0  0  0  0  0
    1.3937   -0.0000    2.4499 C   0  0  0  0  0  0  0  0  0  0  0  0
    2.1365   -1.3110    2.2042 C   0  0  0  0  0  0  0  0  0  0  0  0
    1.5802   -2.2991    1.7382 O   0  0  0  0  0  0  0  0  0  0  0  0
    3.4544   -1.3246    2.5398 N   0  0  0  0  0  0  0  0  0  0  0  0
    4.2334   -0.2044    3.0696 C   0  0  0  0  0  0  0  0  0  0  0  0
    5.6080   -0.8340    3.3485 C   0  0  1  0  0  0  0  0  0  0  0  0
    5.6993   -1.9141    2.2489 C   0  0  1  0  0  0  0  0  0  0  0  0
    4.2877   -2.5042    2.2821 C   0  0  0  0  0  0  0  0  0  0  0  0
    6.0126   -1.3058    0.8691 C   0  0  0  0  0  0  0  0  0  0  0  0
    6.9893   -0.1636    0.9108 C   0  0  0  0  0  0  0  0  0  0  0  0
    7.3224    0.4910    2.0292 C   0  0  0  0  0  0  0  0  0  0  0  0
    6.7805    0.1478    3.3897 C   0  0  0  0  0  0  0  0  0  0  0  0
    0.4737   -1.2620   -0.1091 H   0  0  0  0  0  0  0  0  0  0  0  0
   -0.5426    0.9112    2.1260 H   0  0  0  0  0  0  0  0  0  0  0  0
   -0.5741   -0.8677    2.1880 H   0  0  0  0  0  0  0  0  0  0  0  0
    1.9824    0.8438    2.0558 H   0  0  0  0  0  0  0  0  0  0  0  0
    1.3233    0.1513    3.5437 H   0  0  0  0  0  0  0  0  0  0  0  0
    4.3161    0.6147    2.3323 H   0  0  0  0  0  0  0  0  0  0  0  0
    3.7810    0.2151    3.9823 H   0  0  0  0  0  0  0  0  0  0  0  0
    5.5425   -1.3505    4.3206 H   0  0  0  0  0  0  0  0  0  0  0  0
    6.4625   -2.6650    2.5042 H   0  0  0  0  0  0  0  0  0  0  0  0
    3.9758   -2.9837    1.3437 H   0  0  0  0  0  0  0  0  0  0  0  0
    4.1727   -3.2500    3.0888 H   0  0  0  0  0  0  0  0  0  0  0  0
    5.0763   -0.9533    0.3960 H   0  0  0  0  0  0  0  0  0  0  0  0
    6.3865   -2.0973    0.1975 H   0  0  0  0  0  0  0  0  0  0  0  0
    7.4275    0.1487   -0.0430 H   0  0  0  0  0  0  0  0  0  0  0  0
    8.0395    1.3169    1.9755 H   0  0  0  0  0  0  0  0  0  0  0  0
    6.4798    1.0704    3.9186 H   0  0  0  0  0  0  0  0  0  0  0  0
    7.5961   -0.2770    4.0037 H   0  0  0  0  0  0  0  0  0  0  0  0
  1  2  1  0  0  0  0
  2 16  1  0  0  0  0
  2 17  1  0  0  0  0
  2  3  1  0  0  0  0
  3 19  1  0  0  0  0
  4  3  1  0  0  0  0
  4  6  1  0  0  0  0
  5  4  2  0  0  0  0
  6  7  1  0  0  0  0
  7  8  1  0  0  0  0
  7 21  1  0  0  0  0
  8  9  1  6  0  0  0
  8 14  1  0  0  0  0
  8 22  1  0  0  0  0
  9 10  1  0  0  0  0
  9 23  1  1  0  0  0
 10  6  1  0  0  0  0
 10 25  1  0  0  0  0
 11 12  1  0  0  0  0
 11  9  1  0  0  0  0
 12 13  2  0  0  0  0
 13 14  1  0  0  0  0
 14 30  1  0  0  0  0
 14 31  1  0  0  0  0
 15  1  1  0  0  0  0
 18  3  1  0  0  0  0
 20  7  1  0  0  0  0
 24 10  1  0  0  0  0
 26 11  1  0  0  0  0
 27 11  1  0  0  0  0
 28 12  1  0  0  0  0
 29 13  1  0  0  0  0
M  END
