26299766.xyz
 OpenBabel08132112093D
Sc1nnc(n1/N=C/c1cc(ccc1Cl)[N+](=O)[O-])C1CCCCC1
 40 42  0  0  0  0  0  0  0  0999 V2000
    0.0000    0.0000    0.0000 S   0  0  0  0  0  0  0  0  0  0  0  0
    0.0000   -0.0000    1.7513 C   0  0  0  0  0  0  0  0  0  0  0  0
   -1.0638   -0.0244    2.4989 N   0  0  0  0  0  0  0  0  0  0  0  0
   -0.6435   -0.0284    3.8150 N   0  0  0  0  0  0  0  0  0  0  0  0
    0.6578   -0.0157    3.8683 C   0  0  0  0  0  0  0  0  0  0  0  0
    1.1512   -0.0000    2.5439 N   0  0  0  0  0  0  0  0  0  0  0  0
    2.3729   -0.0212    1.9698 N   0  0  0  0  0  0  0  0  0  0  0  0
    3.4506   -0.1705    2.6466 C   0  0  0  0  0  0  0  0  0  0  0  0
    4.7524   -0.1848    1.9719 C   0  0  0  0  0  0  0  0  0  0  0  0
    4.8435   -0.1311    0.5717 C   0  0  0  0  0  0  0  0  0  0  0  0
    6.0852   -0.1477   -0.0440 C   0  0  0  0  0  0  0  0  0  0  0  0
    7.2754   -0.2162    0.6841 C   0  0  0  0  0  0  0  0  0  0  0  0
    7.2027   -0.2678    2.0720 C   0  0  0  0  0  0  0  0  0  0  0  0
    5.9559   -0.2516    2.7080 C   0  0  0  0  0  0  0  0  0  0  0  0
    5.9289   -0.3066    4.4519 Cl  0  0  0  0  0  0  0  0  0  0  0  0
    6.1491   -0.0919   -1.5199 N   0  0  0  0  0  0  0  0  0  0  0  0
    7.2556   -0.1100   -2.0313 O   0  0  0  0  0  0  0  0  0  0  0  0
    5.0929   -0.0313   -2.1256 O   0  0  0  0  0  0  0  0  0  0  0  0
    1.4735    0.0646    5.1294 C   0  0  0  0  0  0  0  0  0  0  0  0
    2.1655    1.4445    5.2742 C   0  0  0  0  0  0  0  0  0  0  0  0
    1.1716    2.5528    5.6318 C   0  0  0  0  0  0  0  0  0  0  0  0
    0.4107    2.2234    6.9191 C   0  0  0  0  0  0  0  0  0  0  0  0
   -0.3202    0.8837    6.7980 C   0  0  0  0  0  0  0  0  0  0  0  0
    0.6295   -0.2468    6.3852 C   0  0  0  0  0  0  0  0  0  0  0  0
    1.3460    0.1102   -0.0792 H   0  0  0  0  0  0  0  0  0  0  0  0
    3.4673   -0.2955    3.7291 H   0  0  0  0  0  0  0  0  0  0  0  0
    3.9399   -0.0796   -0.0319 H   0  0  0  0  0  0  0  0  0  0  0  0
    8.2287   -0.2273    0.1576 H   0  0  0  0  0  0  0  0  0  0  0  0
    8.1091   -0.3192    2.6757 H   0  0  0  0  0  0  0  0  0  0  0  0
    2.2508   -0.7158    5.0763 H   0  0  0  0  0  0  0  0  0  0  0  0
    2.7103    1.7110    4.3545 H   0  0  0  0  0  0  0  0  0  0  0  0
    2.9266    1.3588    6.0690 H   0  0  0  0  0  0  0  0  0  0  0  0
    0.4521    2.6813    4.8042 H   0  0  0  0  0  0  0  0  0  0  0  0
    1.7099    3.5096    5.7313 H   0  0  0  0  0  0  0  0  0  0  0  0
    1.1282    2.1834    7.7602 H   0  0  0  0  0  0  0  0  0  0  0  0
   -0.3040    3.0281    7.1564 H   0  0  0  0  0  0  0  0  0  0  0  0
   -0.7986    0.6213    7.7560 H   0  0  0  0  0  0  0  0  0  0  0  0
   -1.1205    0.9635    6.0480 H   0  0  0  0  0  0  0  0  0  0  0  0
    1.3430   -0.4369    7.2061 H   0  0  0  0  0  0  0  0  0  0  0  0
    0.0655   -1.1775    6.2250 H   0  0  0  0  0  0  0  0  0  0  0  0
  1  2  1  0  0  0  0
  2  3  2  0  0  0  0
  2  6  1  0  0  0  0
  3  4  1  0  0  0  0
  4  5  2  0  0  0  0
  5 19  1  0  0  0  0
  6  5  1  0  0  0  0
  7  6  1  0  0  0  0
  7  8  2  0  0  0  0
  8 26  1  0  0  0  0
  9  8  1  0  0  0  0
  9 14  2  0  0  0  0
 10  9  1  0  0  0  0
 11 10  2  0  0  0  0
 11 12  1  0  0  0  0
 12 13  2  0  0  0  0
 13 29  1  0  0  0  0
 13 14  1  0  0  0  0
 14 15  1  0  0  0  0
 16 11  1  0  0  0  0
 17 16  2  0  0  0  0
 18 16  2  0  0  0  0
 19 20  1  0  0  0  0
 19 24  1  0  0  0  0
 20 21  1  0  0  0  0
 20 32  1  0  0  0  0
 21 34  1  0  0  0  0
 21 22  1  0  0  0  0
 22 36  1  0  0  0  0
 22 35  1  0  0  0  0
 23 22  1  0  0  0  0
 23 37  1  0  0  0  0
 24 23  1  0  0  0  0
 24 39  1  0  0  0  0
 25  1  1  0  0  0  0
 27 10  1  0  0  0  0
 28 12  1  0  0  0  0
 30 19  1  0  0  0  0
 31 20  1  0  0  0  0
 33 21  1  0  0  0  0
 38 23  1  0  0  0  0
 40 24  1  0  0  0  0
M  END
