263093972.xyz
 OpenBabel08132112093D
SCCCN1CCC2(C1)CN(C2)C
 33 34  0  0  0  0  0  0  0  0999 V2000
    0.0000    0.0000    0.0000 S   0  0  0  0  0  0  0  0  0  0  0  0
    0.0000    0.0000    1.8407 C   0  0  0  0  0  0  0  0  0  0  0  0
    1.3792    0.0000    2.4961 C   0  0  0  0  0  0  0  0  0  0  0  0
    2.1986   -1.2559    2.2091 C   0  0  0  0  0  0  0  0  0  0  0  0
    3.4964   -1.2399    2.8403 N   0  0  0  0  0  0  0  0  0  0  0  0
    3.5088   -1.3037    4.3014 C   0  0  0  0  0  0  0  0  0  0  0  0
    4.9215   -1.8220    4.6653 C   0  0  0  0  0  0  0  0  0  0  0  0
    5.6209   -2.0357    3.3170 C   0  0  0  0  0  0  0  0  0  0  0  0
    4.4416   -2.2357    2.3701 C   0  0  0  0  0  0  0  0  0  0  0  0
    6.6269   -0.9720    2.8109 C   0  0  0  0  0  0  0  0  0  0  0  0
    7.4749   -2.0589    2.3079 N   0  0  0  0  0  0  0  0  0  0  0  0
    6.7945   -3.0276    3.1748 C   0  0  0  0  0  0  0  0  0  0  0  0
    8.9058   -1.9325    2.3697 C   0  0  0  0  0  0  0  0  0  0  0  0
    0.3063   -1.3059   -0.1698 H   0  0  0  0  0  0  0  0  0  0  0  0
   -0.5468    0.9166    2.1076 H   0  0  0  0  0  0  0  0  0  0  0  0
   -0.6099   -0.8473    2.1916 H   0  0  0  0  0  0  0  0  0  0  0  0
    1.9556    0.8790    2.1646 H   0  0  0  0  0  0  0  0  0  0  0  0
    1.2304    0.1058    3.5852 H   0  0  0  0  0  0  0  0  0  0  0  0
    2.3537   -1.3309    1.1208 H   0  0  0  0  0  0  0  0  0  0  0  0
    1.6073   -2.1575    2.5102 H   0  0  0  0  0  0  0  0  0  0  0  0
    3.2938   -0.3166    4.7412 H   0  0  0  0  0  0  0  0  0  0  0  0
    2.7302   -2.0026    4.6820 H   0  0  0  0  0  0  0  0  0  0  0  0
    5.4784   -1.1272    5.3107 H   0  0  0  0  0  0  0  0  0  0  0  0
    4.8525   -2.7800    5.2045 H   0  0  0  0  0  0  0  0  0  0  0  0
    4.0520   -3.2791    2.4651 H   0  0  0  0  0  0  0  0  0  0  0  0
    4.7075   -2.0751    1.3138 H   0  0  0  0  0  0  0  0  0  0  0  0
    7.0892   -0.4117    3.6522 H   0  0  0  0  0  0  0  0  0  0  0  0
    6.2657   -0.2508    2.0579 H   0  0  0  0  0  0  0  0  0  0  0  0
    6.5835   -4.0122    2.7199 H   0  0  0  0  0  0  0  0  0  0  0  0
    7.3136   -3.1893    4.1451 H   0  0  0  0  0  0  0  0  0  0  0  0
    9.2847   -1.7229    3.3984 H   0  0  0  0  0  0  0  0  0  0  0  0
    9.3852   -2.8603    2.0169 H   0  0  0  0  0  0  0  0  0  0  0  0
    9.2423   -1.1131    1.7137 H   0  0  0  0  0  0  0  0  0  0  0  0
  1  2  1  0  0  0  0
  2 15  1  0  0  0  0
  2 16  1  0  0  0  0
  2  3  1  0  0  0  0
  3 18  1  0  0  0  0
  4  3  1  0  0  0  0
  4 20  1  0  0  0  0
  4  5  1  0  0  0  0
  5  6  1  0  0  0  0
  6  7  1  0  0  0  0
  6 22  1  0  0  0  0
  6 21  1  0  0  0  0
  7 24  1  0  0  0  0
  7 23  1  0  0  0  0
  8  7  1  0  0  0  0
  9 25  1  0  0  0  0
  9  5  1  0  0  0  0
  9  8  1  0  0  0  0
 10  8  1  0  0  0  0
 10 27  1  0  0  0  0
 11 13  1  0  0  0  0
 11 10  1  0  0  0  0
 11 12  1  0  0  0  0
 12  8  1  0  0  0  0
 12 30  1  0  0  0  0
 13 31  1  0  0  0  0
 14  1  1  0  0  0  0
 17  3  1  0  0  0  0
 19  4  1  0  0  0  0
 26  9  1  0  0  0  0
 28 10  1  0  0  0  0
 29 12  1  0  0  0  0
 32 13  1  0  0  0  0
 33 13  1  0  0  0  0
M  END
