263145420.xyz
 OpenBabel08132112093D
C#CCCNC(=O)c1cccc(c1)S
 25 25  0  0  0  0  0  0  0  0999 V2000
   -7.5941    1.8334    6.5652 C   0  0  0  0  0  0  0  0  0  0  0  0
   -6.4782    1.7893    6.0959 C   0  0  0  0  0  0  0  0  0  0  0  0
   -5.1466    1.7036    5.5045 C   0  0  0  0  0  0  0  0  0  0  0  0
   -5.0141    0.5209    4.5217 C   0  0  0  0  0  0  0  0  0  0  0  0
   -3.7110    0.4552    3.8921 N   0  0  0  0  0  0  0  0  0  0  0  0
   -2.6221   -0.0159    4.5739 C   0  0  0  0  0  0  0  0  0  0  0  0
   -2.7028   -0.4206    5.7243 O   0  0  0  0  0  0  0  0  0  0  0  0
   -1.3158   -0.0042    3.8271 C   0  0  0  0  0  0  0  0  0  0  0  0
   -0.1371   -0.0284    4.5852 C   0  0  0  0  0  0  0  0  0  0  0  0
    1.0984   -0.0193    3.9404 C   0  0  0  0  0  0  0  0  0  0  0  0
    1.1746    0.0000    2.5456 C   0  0  0  0  0  0  0  0  0  0  0  0
   -0.0000    0.0000    1.7785 C   0  0  0  0  0  0  0  0  0  0  0  0
   -1.2433   -0.0037    2.4286 C   0  0  0  0  0  0  0  0  0  0  0  0
    0.0000    0.0000    0.0000 S   0  0  0  0  0  0  0  0  0  0  0  0
   -8.5783    1.8780    6.9912 H   0  0  0  0  0  0  0  0  0  0  0  0
   -4.3900    1.5762    6.2958 H   0  0  0  0  0  0  0  0  0  0  0  0
   -4.9107    2.6459    4.9792 H   0  0  0  0  0  0  0  0  0  0  0  0
   -5.1792   -0.4161    5.0719 H   0  0  0  0  0  0  0  0  0  0  0  0
   -5.7812    0.5933    3.7365 H   0  0  0  0  0  0  0  0  0  0  0  0
   -3.5623    0.9667    3.0319 H   0  0  0  0  0  0  0  0  0  0  0  0
   -0.2182   -0.0569    5.6724 H   0  0  0  0  0  0  0  0  0  0  0  0
    2.0207   -0.0289    4.5261 H   0  0  0  0  0  0  0  0  0  0  0  0
    2.1503    0.0071    2.0544 H   0  0  0  0  0  0  0  0  0  0  0  0
   -2.1559   -0.0429    1.8292 H   0  0  0  0  0  0  0  0  0  0  0  0
    1.3397   -0.0728   -0.1589 H   0  0  0  0  0  0  0  0  0  0  0  0
  1 15  1  0  0  0  0
  2  1  3  0  0  0  0
  3  2  1  0  0  0  0
  3 16  1  0  0  0  0
  4 18  1  0  0  0  0
  4  3  1  0  0  0  0
  5  4  1  0  0  0  0
  5  6  1  0  0  0  0
  6  7  2  0  0  0  0
  8  6  1  0  0  0  0
  8  9  2  0  0  0  0
  9 21  1  0  0  0  0
 10 22  1  0  0  0  0
 10  9  1  0  0  0  0
 11 10  2  0  0  0  0
 12 13  2  0  0  0  0
 12 11  1  0  0  0  0
 13  8  1  0  0  0  0
 14 12  1  0  0  0  0
 17  3  1  0  0  0  0
 19  4  1  0  0  0  0
 20  5  1  0  0  0  0
 23 11  1  0  0  0  0
 24 13  1  0  0  0  0
 25 14  1  0  0  0  0
M  END
