263237495.xyz
 OpenBabel08132112093D
O=C(C(S)C)NCC1CCCS1
 27 27  0  0  1  0  0  0  0  0999 V2000
   -0.4667   -1.8221    3.3580 O   0  0  0  0  0  0  0  0  0  0  0  0
   -0.8656   -1.1348    2.4330 C   0  0  0  0  0  0  0  0  0  0  0  0
   -0.0000   -0.0000    1.8510 C   0  0  2  0  0  0  0  0  0  0  0  0
    0.0000    0.0000    0.0000 S   0  0  0  0  0  0  0  0  0  0  0  0
    1.4013    0.0000    2.4440 C   0  0  0  0  0  0  0  0  0  0  0  0
   -2.1014   -1.2723    1.8774 N   0  0  0  0  0  0  0  0  0  0  0  0
   -2.9695   -2.3801    2.2329 C   0  0  0  0  0  0  0  0  0  0  0  0
   -2.5937   -3.6681    1.4945 C   0  0  2  0  0  0  0  0  0  0  0  0
   -2.6749   -3.5611   -0.0326 C   0  0  0  0  0  0  0  0  0  0  0  0
   -2.8372   -4.9785   -0.5807 C   0  0  0  0  0  0  0  0  0  0  0  0
   -3.9659   -5.6227    0.2260 C   0  0  0  0  0  0  0  0  0  0  0  0
   -3.7360   -5.0533    1.9669 S   0  0  0  0  0  0  0  0  0  0  0  0
   -0.5100    0.9501    2.0851 H   0  0  0  0  0  0  0  0  0  0  0  0
    0.5717   -1.2197   -0.1413 H   0  0  0  0  0  0  0  0  0  0  0  0
    1.9826    0.8490    2.0588 H   0  0  0  0  0  0  0  0  0  0  0  0
    1.3445    0.0602    3.5404 H   0  0  0  0  0  0  0  0  0  0  0  0
    1.9282   -0.9337    2.1969 H   0  0  0  0  0  0  0  0  0  0  0  0
   -2.2568   -0.7995    0.9928 H   0  0  0  0  0  0  0  0  0  0  0  0
   -2.8901   -2.5351    3.3178 H   0  0  0  0  0  0  0  0  0  0  0  0
   -4.0114   -2.1109    2.0002 H   0  0  0  0  0  0  0  0  0  0  0  0
   -1.5759   -3.9546    1.8014 H   0  0  0  0  0  0  0  0  0  0  0  0
   -1.7884   -3.0493   -0.4395 H   0  0  0  0  0  0  0  0  0  0  0  0
   -3.5585   -2.9574   -0.3089 H   0  0  0  0  0  0  0  0  0  0  0  0
   -3.0597   -4.9862   -1.6602 H   0  0  0  0  0  0  0  0  0  0  0  0
   -1.9029   -5.5439   -0.4291 H   0  0  0  0  0  0  0  0  0  0  0  0
   -4.9531   -5.2977   -0.1383 H   0  0  0  0  0  0  0  0  0  0  0  0
   -3.9348   -6.7215    0.2037 H   0  0  0  0  0  0  0  0  0  0  0  0
  2  1  2  0  0  0  0
  3 13  1  1  0  0  0
  3  2  1  0  0  0  0
  3  5  1  0  0  0  0
  4  3  1  0  0  0  0
  5 16  1  0  0  0  0
  6  7  1  0  0  0  0
  6  2  1  0  0  0  0
  7 19  1  0  0  0  0
  8 21  1  1  0  0  0
  8 12  1  0  0  0  0
  8  7  1  0  0  0  0
  9  8  1  0  0  0  0
 10 25  1  0  0  0  0
 10  9  1  0  0  0  0
 10 11  1  0  0  0  0
 11 12  1  0  0  0  0
 14  4  1  0  0  0  0
 15  5  1  0  0  0  0
 17  5  1  0  0  0  0
 18  6  1  0  0  0  0
 20  7  1  0  0  0  0
 22  9  1  0  0  0  0
 23  9  1  0  0  0  0
 24 10  1  0  0  0  0
 26 11  1  0  0  0  0
 27 11  1  0  0  0  0
M  END
