263363164.xyz
 OpenBabel08132112093D
NC(=O)C1COCCN1C(=O)C(S)C
 28 28  0  0  1  0  0  0  0  0999 V2000
    3.0625    0.6721    5.2048 N   0  0  0  0  0  0  0  0  0  0  0  0
    3.6217    1.4753    4.2680 C   0  0  0  0  0  0  0  0  0  0  0  0
    4.0680    2.5890    4.4911 O   0  0  0  0  0  0  0  0  0  0  0  0
    3.6320    0.8575    2.8525 C   0  0  2  0  0  0  0  0  0  0  0  0
    4.6609    1.5467    1.9429 C   0  0  0  0  0  0  0  0  0  0  0  0
    4.3302    1.3294    0.5901 O   0  0  0  0  0  0  0  0  0  0  0  0
    3.1556    2.0133    0.2021 C   0  0  0  0  0  0  0  0  0  0  0  0
    2.1523    2.1284    1.3621 C   0  0  0  0  0  0  0  0  0  0  0  0
    2.2949    0.9757    2.2412 N   0  0  0  0  0  0  0  0  0  0  0  0
    1.3861   -0.0000    2.5041 C   0  0  0  0  0  0  0  0  0  0  0  0
    1.6354   -0.9047    3.3040 O   0  0  0  0  0  0  0  0  0  0  0  0
    0.0000   -0.0000    1.8495 C   0  0  2  0  0  0  0  0  0  0  0  0
    0.0000    0.0000    0.0000 S   0  0  0  0  0  0  0  0  0  0  0  0
   -0.9201    1.1087    2.3672 C   0  0  0  0  0  0  0  0  0  0  0  0
    2.9258    1.0484    6.1360 H   0  0  0  0  0  0  0  0  0  0  0  0
    2.5693   -0.1680    4.9027 H   0  0  0  0  0  0  0  0  0  0  0  0
    3.8457   -0.2171    2.9291 H   0  0  0  0  0  0  0  0  0  0  0  0
    4.7233    2.6204    2.1918 H   0  0  0  0  0  0  0  0  0  0  0  0
    5.6545    1.1109    2.1160 H   0  0  0  0  0  0  0  0  0  0  0  0
    3.3911    3.0283   -0.1773 H   0  0  0  0  0  0  0  0  0  0  0  0
    2.7061    1.4310   -0.6162 H   0  0  0  0  0  0  0  0  0  0  0  0
    2.3358    3.0365    1.9597 H   0  0  0  0  0  0  0  0  0  0  0  0
    1.1397    2.1903    0.9590 H   0  0  0  0  0  0  0  0  0  0  0  0
   -0.4164   -0.9642    2.1656 H   0  0  0  0  0  0  0  0  0  0  0  0
    0.7690   -1.1033   -0.1455 H   0  0  0  0  0  0  0  0  0  0  0  0
   -1.9444    0.9540    1.9969 H   0  0  0  0  0  0  0  0  0  0  0  0
   -0.9431    1.0792    3.4673 H   0  0  0  0  0  0  0  0  0  0  0  0
   -0.5957    2.1140    2.0626 H   0  0  0  0  0  0  0  0  0  0  0  0
  1 15  1  0  0  0  0
  2  3  2  0  0  0  0
  2  1  1  0  0  0  0
  4 17  1  1  0  0  0
  4  2  1  0  0  0  0
  5 19  1  0  0  0  0
  5 18  1  0  0  0  0
  5  4  1  0  0  0  0
  6  5  1  0  0  0  0
  7  6  1  0  0  0  0
  7  8  1  0  0  0  0
  8 22  1  0  0  0  0
  8  9  1  0  0  0  0
  9 10  1  0  0  0  0
  9  4  1  0  0  0  0
 10 11  2  0  0  0  0
 12 24  1  1  0  0  0
 12 14  1  0  0  0  0
 12 10  1  0  0  0  0
 13 12  1  0  0  0  0
 14 27  1  0  0  0  0
 16  1  1  0  0  0  0
 20  7  1  0  0  0  0
 21  7  1  0  0  0  0
 23  8  1  0  0  0  0
 25 13  1  0  0  0  0
 26 14  1  0  0  0  0
 28 14  1  0  0  0  0
M  END
