263321691.xyz
 OpenBabel08132112093D
CC(C1CCOCC1)NC(=O)C(S)C
 33 33  0  0  1  0  0  0  0  0999 V2000
   -3.1386   -3.6545    1.1956 C   0  0  0  0  0  0  0  0  0  0  0  0
   -2.7726   -2.6330    2.2699 C   0  0  2  0  0  0  0  0  0  0  0  0
   -3.9649   -1.8763    2.8929 C   0  0  0  0  0  0  0  0  0  0  0  0
   -4.9983   -2.7952    3.5508 C   0  0  0  0  0  0  0  0  0  0  0  0
   -5.9987   -1.9469    4.3585 C   0  0  0  0  0  0  0  0  0  0  0  0
   -6.1595   -0.6425    3.8274 O   0  0  0  0  0  0  0  0  0  0  0  0
   -6.1048   -0.6129    2.4178 C   0  0  0  0  0  0  0  0  0  0  0  0
   -4.6826   -0.9237    1.9131 C   0  0  0  0  0  0  0  0  0  0  0  0
   -1.7968   -1.6930    1.7319 N   0  0  0  0  0  0  0  0  0  0  0  0
   -0.8799   -1.0788    2.5155 C   0  0  0  0  0  0  0  0  0  0  0  0
   -0.7455   -1.3134    3.7077 O   0  0  0  0  0  0  0  0  0  0  0  0
   -0.0000   -0.0000    1.8466 C   0  0  2  0  0  0  0  0  0  0  0  0
    0.0000    0.0000    0.0000 S   0  0  0  0  0  0  0  0  0  0  0  0
    1.4075   -0.0000    2.4358 C   0  0  0  0  0  0  0  0  0  0  0  0
   -2.2324   -4.1570    0.8252 H   0  0  0  0  0  0  0  0  0  0  0  0
   -3.8142   -4.4240    1.5951 H   0  0  0  0  0  0  0  0  0  0  0  0
   -3.6405   -3.1837    0.3342 H   0  0  0  0  0  0  0  0  0  0  0  0
   -2.2639   -3.1521    3.0975 H   0  0  0  0  0  0  0  0  0  0  0  0
   -3.5282   -1.2602    3.6954 H   0  0  0  0  0  0  0  0  0  0  0  0
   -4.5122   -3.5284    4.2149 H   0  0  0  0  0  0  0  0  0  0  0  0
   -5.5283   -3.3758    2.7772 H   0  0  0  0  0  0  0  0  0  0  0  0
   -6.9798   -2.4619    4.4142 H   0  0  0  0  0  0  0  0  0  0  0  0
   -5.6377   -1.8077    5.3897 H   0  0  0  0  0  0  0  0  0  0  0  0
   -6.8333   -1.3313    1.9884 H   0  0  0  0  0  0  0  0  0  0  0  0
   -6.4258    0.3928    2.1089 H   0  0  0  0  0  0  0  0  0  0  0  0
   -4.7513   -1.3683    0.9053 H   0  0  0  0  0  0  0  0  0  0  0  0
   -4.0991    0.0040    1.8122 H   0  0  0  0  0  0  0  0  0  0  0  0
   -1.8561   -1.3993    0.7611 H   0  0  0  0  0  0  0  0  0  0  0  0
   -0.4887    0.9611    2.0832 H   0  0  0  0  0  0  0  0  0  0  0  0
    0.7049   -1.1473   -0.1457 H   0  0  0  0  0  0  0  0  0  0  0  0
    1.3418    0.0413    3.5318 H   0  0  0  0  0  0  0  0  0  0  0  0
    1.9429   -0.9244    2.1661 H   0  0  0  0  0  0  0  0  0  0  0  0
    1.9848    0.8581    2.0652 H   0  0  0  0  0  0  0  0  0  0  0  0
  1 16  1  0  0  0  0
  1  2  1  0  0  0  0
  2  3  1  0  0  0  0
  2 18  1  1  0  0  0
  3  4  1  0  0  0  0
  3 19  1  0  0  0  0
  4 20  1  0  0  0  0
  4  5  1  0  0  0  0
  5 22  1  0  0  0  0
  5 23  1  0  0  0  0
  6  5  1  0  0  0  0
  7  6  1  0  0  0  0
  8  7  1  0  0  0  0
  8  3  1  0  0  0  0
  9  2  1  0  0  0  0
  9 10  1  0  0  0  0
 10 11  2  0  0  0  0
 12 29  1  1  0  0  0
 12 14  1  0  0  0  0
 12 10  1  0  0  0  0
 13 12  1  0  0  0  0
 14 31  1  0  0  0  0
 15  1  1  0  0  0  0
 17  1  1  0  0  0  0
 21  4  1  0  0  0  0
 24  7  1  0  0  0  0
 25  7  1  0  0  0  0
 26  8  1  0  0  0  0
 27  8  1  0  0  0  0
 28  9  1  0  0  0  0
 30 13  1  0  0  0  0
 32 14  1  0  0  0  0
 33 14  1  0  0  0  0
M  END
