263400004.xyz
 OpenBabel08132112093D
SCCN1CCC(CC1)N1CCCC1
 36 37  0  0  0  0  0  0  0  0999 V2000
    0.0000    0.0000    0.0000 S   0  0  0  0  0  0  0  0  0  0  0  0
    0.0000    0.0000    1.8356 C   0  0  0  0  0  0  0  0  0  0  0  0
    1.3730    0.0000    2.5298 C   0  0  0  0  0  0  0  0  0  0  0  0
    2.2800    1.0791    2.2325 N   0  0  0  0  0  0  0  0  0  0  0  0
    1.7740    2.4304    2.3787 C   0  0  0  0  0  0  0  0  0  0  0  0
    2.9174    3.3985    2.7231 C   0  0  0  0  0  0  0  0  0  0  0  0
    4.2439    3.0083    2.0082 C   0  0  0  0  0  0  0  0  0  0  0  0
    3.9288    2.1772    0.7637 C   0  0  0  0  0  0  0  0  0  0  0  0
    3.2324    0.8678    1.1433 C   0  0  0  0  0  0  0  0  0  0  0  0
    5.1233    4.1220    1.7046 N   0  0  0  0  0  0  0  0  0  0  0  0
    5.7102    4.8345    2.8262 C   0  0  0  0  0  0  0  0  0  0  0  0
    6.4561    5.9744    2.1364 C   0  0  0  0  0  0  0  0  0  0  0  0
    5.4605    6.3905    1.0401 C   0  0  0  0  0  0  0  0  0  0  0  0
    4.7061    5.0865    0.6866 C   0  0  0  0  0  0  0  0  0  0  0  0
    0.6243   -1.1903   -0.1608 H   0  0  0  0  0  0  0  0  0  0  0  0
   -0.6015   -0.8471    2.2029 H   0  0  0  0  0  0  0  0  0  0  0  0
   -0.5552    0.9151    2.0931 H   0  0  0  0  0  0  0  0  0  0  0  0
    1.1587   -0.0103    3.6185 H   0  0  0  0  0  0  0  0  0  0  0  0
    1.8887   -0.9514    2.3143 H   0  0  0  0  0  0  0  0  0  0  0  0
    1.0295    2.4337    3.1915 H   0  0  0  0  0  0  0  0  0  0  0  0
    1.2358    2.7842    1.4723 H   0  0  0  0  0  0  0  0  0  0  0  0
    3.0814    3.4079    3.8116 H   0  0  0  0  0  0  0  0  0  0  0  0
    2.6226    4.4213    2.4353 H   0  0  0  0  0  0  0  0  0  0  0  0
    4.8076    2.3514    2.6936 H   0  0  0  0  0  0  0  0  0  0  0  0
    3.2860    2.7582    0.0817 H   0  0  0  0  0  0  0  0  0  0  0  0
    4.8589    1.9618    0.2163 H   0  0  0  0  0  0  0  0  0  0  0  0
    2.7538    0.4437    0.2413 H   0  0  0  0  0  0  0  0  0  0  0  0
    3.9912    0.1355    1.4817 H   0  0  0  0  0  0  0  0  0  0  0  0
    4.9558    5.2496    3.5350 H   0  0  0  0  0  0  0  0  0  0  0  0
    6.3676    4.1666    3.4089 H   0  0  0  0  0  0  0  0  0  0  0  0
    7.3847    5.5860    1.6887 H   0  0  0  0  0  0  0  0  0  0  0  0
    6.7203    6.7981    2.8165 H   0  0  0  0  0  0  0  0  0  0  0  0
    5.9494    6.8469    0.1668 H   0  0  0  0  0  0  0  0  0  0  0  0
    4.7545    7.1348    1.4416 H   0  0  0  0  0  0  0  0  0  0  0  0
    4.9600    4.7183   -0.3228 H   0  0  0  0  0  0  0  0  0  0  0  0
    3.6110    5.2672    0.6862 H   0  0  0  0  0  0  0  0  0  0  0  0
  1  2  1  0  0  0  0
  2 17  1  0  0  0  0
  2 16  1  0  0  0  0
  2  3  1  0  0  0  0
  3 18  1  0  0  0  0
  4  5  1  0  0  0  0
  4  3  1  0  0  0  0
  5  6  1  0  0  0  0
  5 20  1  0  0  0  0
  6 22  1  0  0  0  0
  7 24  1  0  0  0  0
  7  6  1  0  0  0  0
  8  9  1  0  0  0  0
  8  7  1  0  0  0  0
  9 28  1  0  0  0  0
  9  4  1  0  0  0  0
 10  7  1  0  0  0  0
 10 11  1  0  0  0  0
 11 30  1  0  0  0  0
 11 29  1  0  0  0  0
 12 32  1  0  0  0  0
 12 11  1  0  0  0  0
 13 34  1  0  0  0  0
 13 12  1  0  0  0  0
 14 13  1  0  0  0  0
 14 10  1  0  0  0  0
 15  1  1  0  0  0  0
 19  3  1  0  0  0  0
 21  5  1  0  0  0  0
 23  6  1  0  0  0  0
 25  8  1  0  0  0  0
 26  8  1  0  0  0  0
 27  9  1  0  0  0  0
 31 12  1  0  0  0  0
 33 13  1  0  0  0  0
 35 14  1  0  0  0  0
 36 14  1  0  0  0  0
M  END
