263672017.xyz
 OpenBabel08132112093D
CC(CS)CN1CC(C)CCC1=O
 32 32  0  0  1  0  0  0  0  0999 V2000
    2.2108   -1.2352    2.1261 C   0  0  0  0  0  0  0  0  0  0  0  0
    1.3866    0.0000    2.4899 C   0  0  1  0  0  0  0  0  0  0  0  0
    0.0000    0.0000    1.8360 C   0  0  0  0  0  0  0  0  0  0  0  0
    0.0000    0.0000    0.0000 S   0  0  0  0  0  0  0  0  0  0  0  0
    1.2592    0.1067    4.0208 C   0  0  0  0  0  0  0  0  0  0  0  0
    0.5606    1.2976    4.4859 N   0  0  0  0  0  0  0  0  0  0  0  0
    1.3616    2.5124    4.5895 C   0  0  0  0  0  0  0  0  0  0  0  0
    0.5360    3.7865    4.7479 C   0  0  2  0  0  0  0  0  0  0  0  0
    1.4391    4.9884    5.0176 C   0  0  0  0  0  0  0  0  0  0  0  0
   -0.5044    3.5622    5.8449 C   0  0  0  0  0  0  0  0  0  0  0  0
   -1.4282    2.4137    5.4549 C   0  0  0  0  0  0  0  0  0  0  0  0
   -0.7291    1.1605    4.9439 C   0  0  0  0  0  0  0  0  0  0  0  0
   -1.3208    0.0920    4.9019 O   0  0  0  0  0  0  0  0  0  0  0  0
    1.7251   -2.1502    2.5055 H   0  0  0  0  0  0  0  0  0  0  0  0
    3.2208   -1.1845    2.5633 H   0  0  0  0  0  0  0  0  0  0  0  0
    2.3076   -1.3320    1.0356 H   0  0  0  0  0  0  0  0  0  0  0  0
    1.9260    0.8951    2.1251 H   0  0  0  0  0  0  0  0  0  0  0  0
   -0.5910    0.8567    2.1852 H   0  0  0  0  0  0  0  0  0  0  0  0
   -0.5598   -0.9034    2.1230 H   0  0  0  0  0  0  0  0  0  0  0  0
    0.5653    1.2210   -0.1514 H   0  0  0  0  0  0  0  0  0  0  0  0
    2.2687    0.0978    4.4673 H   0  0  0  0  0  0  0  0  0  0  0  0
    0.7104   -0.7649    4.4026 H   0  0  0  0  0  0  0  0  0  0  0  0
    1.9911    2.5902    3.6873 H   0  0  0  0  0  0  0  0  0  0  0  0
    2.0594    2.4232    5.4476 H   0  0  0  0  0  0  0  0  0  0  0  0
   -0.0052    3.9580    3.7985 H   0  0  0  0  0  0  0  0  0  0  0  0
    2.1881    5.1197    4.2202 H   0  0  0  0  0  0  0  0  0  0  0  0
    1.9803    4.8688    5.9710 H   0  0  0  0  0  0  0  0  0  0  0  0
    0.8498    5.9161    5.0820 H   0  0  0  0  0  0  0  0  0  0  0  0
    0.0166    3.3307    6.7917 H   0  0  0  0  0  0  0  0  0  0  0  0
   -1.0870    4.4805    6.0237 H   0  0  0  0  0  0  0  0  0  0  0  0
   -2.1063    2.7314    4.6431 H   0  0  0  0  0  0  0  0  0  0  0  0
   -2.0773    2.0909    6.2813 H   0  0  0  0  0  0  0  0  0  0  0  0
  1  2  1  0  0  0  0
  1 14  1  0  0  0  0
  1 15  1  0  0  0  0
  2 17  1  6  0  0  0
  2  5  1  0  0  0  0
  3 19  1  0  0  0  0
  3 18  1  0  0  0  0
  3  2  1  0  0  0  0
  4  3  1  0  0  0  0
  5 22  1  0  0  0  0
  5 21  1  0  0  0  0
  5  6  1  0  0  0  0
  6  7  1  0  0  0  0
  6 12  1  0  0  0  0
  7  8  1  0  0  0  0
  7 24  1  0  0  0  0
  8 25  1  6  0  0  0
  8  9  1  0  0  0  0
  8 10  1  0  0  0  0
  9 28  1  0  0  0  0
  9 27  1  0  0  0  0
 10 30  1  0  0  0  0
 10 29  1  0  0  0  0
 11 10  1  0  0  0  0
 11 32  1  0  0  0  0
 12 11  1  0  0  0  0
 13 12  2  0  0  0  0
 16  1  1  0  0  0  0
 20  4  1  0  0  0  0
 23  7  1  0  0  0  0
 26  9  1  0  0  0  0
 31 11  1  0  0  0  0
M  END
