265092060.xyz
 OpenBabel08132112093D
CN(CCC(S)C)C
 23 22  0  0  1  0  0  0  0  0999 V2000
    1.2506   -2.5587    4.0174 C   0  0  0  0  0  0  0  0  0  0  0  0
    0.7395   -1.2684    4.4351 N   0  0  0  0  0  0  0  0  0  0  0  0
    1.5110   -0.1483    3.9186 C   0  0  0  0  0  0  0  0  0  0  0  0
    1.4309   -0.0000    2.3957 C   0  0  0  0  0  0  0  0  0  0  0  0
   -0.0000    0.0000    1.8458 C   0  0  2  0  0  0  0  0  0  0  0  0
    0.0000    0.0000    0.0000 S   0  0  0  0  0  0  0  0  0  0  0  0
   -0.8762    1.1109    2.4172 C   0  0  0  0  0  0  0  0  0  0  0  0
    0.5620   -1.1980    5.8706 C   0  0  0  0  0  0  0  0  0  0  0  0
    2.2825   -2.7582    4.3903 H   0  0  0  0  0  0  0  0  0  0  0  0
    0.5967   -3.3601    4.3947 H   0  0  0  0  0  0  0  0  0  0  0  0
    1.2708   -2.6372    2.9206 H   0  0  0  0  0  0  0  0  0  0  0  0
    1.1218    0.7670    4.3924 H   0  0  0  0  0  0  0  0  0  0  0  0
    2.5846   -0.2152    4.2162 H   0  0  0  0  0  0  0  0  0  0  0  0
    1.9308    0.9443    2.1169 H   0  0  0  0  0  0  0  0  0  0  0  0
    2.0011   -0.7986    1.8968 H   0  0  0  0  0  0  0  0  0  0  0  0
   -0.4644   -0.9685    2.0886 H   0  0  0  0  0  0  0  0  0  0  0  0
    0.5975    1.2067   -0.1488 H   0  0  0  0  0  0  0  0  0  0  0  0
   -0.4295    2.1022    2.2307 H   0  0  0  0  0  0  0  0  0  0  0  0
   -1.8750    1.0972    1.9583 H   0  0  0  0  0  0  0  0  0  0  0  0
   -0.9964    0.9854    3.5049 H   0  0  0  0  0  0  0  0  0  0  0  0
    1.5187   -1.2854    6.4370 H   0  0  0  0  0  0  0  0  0  0  0  0
   -0.1009   -2.0095    6.2102 H   0  0  0  0  0  0  0  0  0  0  0  0
    0.0948   -0.2403    6.1487 H   0  0  0  0  0  0  0  0  0  0  0  0
  1  9  1  0  0  0  0
  1 10  1  0  0  0  0
  1  2  1  0  0  0  0
  2  8  1  0  0  0  0
  3 13  1  0  0  0  0
  3 12  1  0  0  0  0
  3  2  1  0  0  0  0
  4  3  1  0  0  0  0
  5 16  1  1  0  0  0
  5  4  1  0  0  0  0
  5  7  1  0  0  0  0
  6  5  1  0  0  0  0
  7 20  1  0  0  0  0
  8 23  1  0  0  0  0
  8 22  1  0  0  0  0
  8 21  1  0  0  0  0
 11  1  1  0  0  0  0
 14  4  1  0  0  0  0
 15  4  1  0  0  0  0
 17  6  1  0  0  0  0
 18  7  1  0  0  0  0
 19  7  1  0  0  0  0
M  END
