265544380.xyz
 OpenBabel08132112093D
SCC(=C)CN1CCCC(C1)C
 31 31  0  0  1  0  0  0  0  0999 V2000
    0.0000    0.0000    0.0000 S   0  0  0  0  0  0  0  0  0  0  0  0
   -0.0000   -0.0000    1.8528 C   0  0  0  0  0  0  0  0  0  0  0  0
    1.3796    0.0000    2.4477 C   0  0  0  0  0  0  0  0  0  0  0  0
    1.9268    1.1019    2.9735 C   0  0  0  0  0  0  0  0  0  0  0  0
    2.1169   -1.3260    2.4205 C   0  0  0  0  0  0  0  0  0  0  0  0
    3.5524   -1.1946    2.3369 N   0  0  0  0  0  0  0  0  0  0  0  0
    4.0165   -0.7293    1.0367 C   0  0  0  0  0  0  0  0  0  0  0  0
    5.4534   -0.1861    1.1533 C   0  0  0  0  0  0  0  0  0  0  0  0
    6.1690   -0.7874    2.3740 C   0  0  0  0  0  0  0  0  0  0  0  0
    5.7993   -2.2640    2.5795 C   0  0  1  0  0  0  0  0  0  0  0  0
    4.2617   -2.3907    2.7693 C   0  0  0  0  0  0  0  0  0  0  0  0
    6.3248   -3.1568    1.4493 C   0  0  0  0  0  0  0  0  0  0  0  0
    0.4121   -1.2778   -0.1611 H   0  0  0  0  0  0  0  0  0  0  0  0
   -0.5462    0.9143    2.1236 H   0  0  0  0  0  0  0  0  0  0  0  0
   -0.5971   -0.8596    2.1958 H   0  0  0  0  0  0  0  0  0  0  0  0
    2.9443    1.0762    3.3696 H   0  0  0  0  0  0  0  0  0  0  0  0
    1.3810    2.0490    3.0036 H   0  0  0  0  0  0  0  0  0  0  0  0
    1.8711   -1.8742    3.3484 H   0  0  0  0  0  0  0  0  0  0  0  0
    1.7135   -1.9584    1.5937 H   0  0  0  0  0  0  0  0  0  0  0  0
    3.9659   -1.5553    0.2895 H   0  0  0  0  0  0  0  0  0  0  0  0
    3.3311    0.0496    0.6750 H   0  0  0  0  0  0  0  0  0  0  0  0
    6.0069   -0.4073    0.2266 H   0  0  0  0  0  0  0  0  0  0  0  0
    5.4332    0.9109    1.2502 H   0  0  0  0  0  0  0  0  0  0  0  0
    5.8746   -0.2273    3.2747 H   0  0  0  0  0  0  0  0  0  0  0  0
    7.2616   -0.6802    2.2736 H   0  0  0  0  0  0  0  0  0  0  0  0
    6.2784   -2.6054    3.5120 H   0  0  0  0  0  0  0  0  0  0  0  0
    4.0213   -2.5587    3.8324 H   0  0  0  0  0  0  0  0  0  0  0  0
    3.8992   -3.2914    2.2193 H   0  0  0  0  0  0  0  0  0  0  0  0
    6.0983   -4.2172    1.6452 H   0  0  0  0  0  0  0  0  0  0  0  0
    7.4177   -3.0598    1.3455 H   0  0  0  0  0  0  0  0  0  0  0  0
    5.8718   -2.9003    0.4785 H   0  0  0  0  0  0  0  0  0  0  0  0
  1  2  1  0  0  0  0
  2 14  1  0  0  0  0
  2 15  1  0  0  0  0
  2  3  1  0  0  0  0
  3  4  2  0  0  0  0
  4 17  1  0  0  0  0
  4 16  1  0  0  0  0
  5  3  1  0  0  0  0
  5 18  1  0  0  0  0
  6  5  1  0  0  0  0
  6 11  1  0  0  0  0
  7  8  1  0  0  0  0
  7  6  1  0  0  0  0
  8 23  1  0  0  0  0
  8  9  1  0  0  0  0
  9 10  1  0  0  0  0
  9 24  1  0  0  0  0
 10 11  1  0  0  0  0
 10 26  1  1  0  0  0
 11 27  1  0  0  0  0
 12 29  1  0  0  0  0
 12 10  1  0  0  0  0
 13  1  1  0  0  0  0
 19  5  1  0  0  0  0
 20  7  1  0  0  0  0
 21  7  1  0  0  0  0
 22  8  1  0  0  0  0
 25  9  1  0  0  0  0
 28 11  1  0  0  0  0
 30 12  1  0  0  0  0
 31 12  1  0  0  0  0
M  END
