266320899.xyz
 OpenBabel08132112093D
Sc1nccn1C1CC2CCC1CC2
 30 32  0  0  1  0  0  0  0  0999 V2000
    0.0000    0.0000    0.0000 S   0  0  0  0  0  0  0  0  0  0  0  0
   -0.0000    0.0000    1.7701 C   0  0  0  0  0  0  0  0  0  0  0  0
    1.0685   -0.0000    2.5356 N   0  0  0  0  0  0  0  0  0  0  0  0
    0.5895    0.0402    3.8232 C   0  0  0  0  0  0  0  0  0  0  0  0
   -0.7853    0.0601    3.8266 C   0  0  0  0  0  0  0  0  0  0  0  0
   -1.1675    0.0344    2.4907 N   0  0  0  0  0  0  0  0  0  0  0  0
   -2.5096    0.0645    1.9065 C   0  0  1  0  0  0  0  0  0  0  0  0
   -2.8977   -1.2774    1.2254 C   0  0  0  0  0  0  0  0  0  0  0  0
   -4.4090   -1.5138    1.3929 C   0  0  2  0  0  0  0  0  0  0  0  0
   -5.1676   -0.2287    1.0163 C   0  0  0  0  0  0  0  0  0  0  0  0
   -4.8376    0.8796    2.0533 C   0  0  0  0  0  0  0  0  0  0  0  0
   -3.6239    0.4472    2.8986 C   0  0  1  0  0  0  0  0  0  0  0  0
   -4.0386   -0.7607    3.7631 C   0  0  0  0  0  0  0  0  0  0  0  0
   -4.6949   -1.8438    2.8667 C   0  0  0  0  0  0  0  0  0  0  0  0
    1.3272    0.2442   -0.0581 H   0  0  0  0  0  0  0  0  0  0  0  0
    1.2593    0.0544    4.6819 H   0  0  0  0  0  0  0  0  0  0  0  0
   -1.5033    0.1004    4.6372 H   0  0  0  0  0  0  0  0  0  0  0  0
   -2.4714    0.8545    1.1379 H   0  0  0  0  0  0  0  0  0  0  0  0
   -2.6167   -1.2628    0.1621 H   0  0  0  0  0  0  0  0  0  0  0  0
   -2.3326   -2.0981    1.6949 H   0  0  0  0  0  0  0  0  0  0  0  0
   -4.7280   -2.3462    0.7467 H   0  0  0  0  0  0  0  0  0  0  0  0
   -4.8770    0.0869    0.0009 H   0  0  0  0  0  0  0  0  0  0  0  0
   -6.2509   -0.4239    0.9860 H   0  0  0  0  0  0  0  0  0  0  0  0
   -4.6308    1.8383    1.5526 H   0  0  0  0  0  0  0  0  0  0  0  0
   -5.6927    1.0534    2.7255 H   0  0  0  0  0  0  0  0  0  0  0  0
   -3.2893    1.2840    3.5298 H   0  0  0  0  0  0  0  0  0  0  0  0
   -3.1648   -1.1787    4.2828 H   0  0  0  0  0  0  0  0  0  0  0  0
   -4.7342   -0.4222    4.5467 H   0  0  0  0  0  0  0  0  0  0  0  0
   -5.7842   -1.8840    3.0299 H   0  0  0  0  0  0  0  0  0  0  0  0
   -4.3018   -2.8419    3.1156 H   0  0  0  0  0  0  0  0  0  0  0  0
  1  2  1  0  0  0  0
  2  6  1  0  0  0  0
  2  3  2  0  0  0  0
  3  4  2  0  0  0  0
  4  5  1  0  0  0  0
  4 16  1  0  0  0  0
  5 17  1  0  0  0  0
  6  5  1  0  0  0  0
  7  6  1  0  0  0  0
  7 12  1  1  0  0  0
  8  9  1  0  0  0  0
  8 20  1  0  0  0  0
  8  7  1  0  0  0  0
  9 21  1  6  0  0  0
  9 14  1  0  0  0  0
 10  9  1  0  0  0  0
 10 11  1  0  0  0  0
 11 25  1  0  0  0  0
 11 12  1  0  0  0  0
 12 26  1  1  0  0  0
 12 13  1  0  0  0  0
 13 27  1  0  0  0  0
 13 28  1  0  0  0  0
 14 29  1  0  0  0  0
 14 30  1  0  0  0  0
 14 13  1  0  0  0  0
 15  1  1  0  0  0  0
 18  7  1  0  0  0  0
 19  8  1  0  0  0  0
 22 10  1  0  0  0  0
 23 10  1  0  0  0  0
 24 11  1  0  0  0  0
M  RAD  1   5   2
M  END
