266332152.xyz
 OpenBabel08132112093D
CCn1cnnc1Cn1ccnc1S
 25 26  0  0  0  0  0  0  0  0999 V2000
   -2.4378   -3.0794   -0.1833 C   0  0  0  0  0  0  0  0  0  0  0  0
   -1.9844   -3.0823    1.2728 C   0  0  0  0  0  0  0  0  0  0  0  0
   -2.9966   -2.5584    2.1854 N   0  0  0  0  0  0  0  0  0  0  0  0
   -3.9254   -3.2720    2.8957 C   0  0  0  0  0  0  0  0  0  0  0  0
   -4.7103   -2.4717    3.5742 N   0  0  0  0  0  0  0  0  0  0  0  0
   -4.3036   -1.1905    3.3163 N   0  0  0  0  0  0  0  0  0  0  0  0
   -3.2888   -1.2497    2.4825 C   0  0  0  0  0  0  0  0  0  0  0  0
   -2.5328   -0.0590    1.9915 C   0  0  0  0  0  0  0  0  0  0  0  0
   -1.1661   -0.0176    2.4953 N   0  0  0  0  0  0  0  0  0  0  0  0
   -0.7962   -0.0307    3.8332 C   0  0  0  0  0  0  0  0  0  0  0  0
    0.5774   -0.0197    3.8336 C   0  0  0  0  0  0  0  0  0  0  0  0
    1.0614   -0.0000    2.5432 N   0  0  0  0  0  0  0  0  0  0  0  0
    0.0000    0.0000    1.7721 C   0  0  0  0  0  0  0  0  0  0  0  0
    0.0000    0.0000    0.0000 S   0  0  0  0  0  0  0  0  0  0  0  0
   -2.6528   -2.0584   -0.5319 H   0  0  0  0  0  0  0  0  0  0  0  0
   -1.6424   -3.4881   -0.8244 H   0  0  0  0  0  0  0  0  0  0  0  0
   -3.3445   -3.6891   -0.3170 H   0  0  0  0  0  0  0  0  0  0  0  0
   -1.7473   -4.1037    1.6055 H   0  0  0  0  0  0  0  0  0  0  0  0
   -1.0690   -2.4872    1.3941 H   0  0  0  0  0  0  0  0  0  0  0  0
   -3.9744   -4.3603    2.8830 H   0  0  0  0  0  0  0  0  0  0  0  0
   -2.4869   -0.0337    0.8930 H   0  0  0  0  0  0  0  0  0  0  0  0
   -3.0888    0.8295    2.3232 H   0  0  0  0  0  0  0  0  0  0  0  0
   -1.5423   -0.0514    4.6233 H   0  0  0  0  0  0  0  0  0  0  0  0
    1.2476   -0.0231    4.6917 H   0  0  0  0  0  0  0  0  0  0  0  0
    1.3420   -0.1405   -0.0559 H   0  0  0  0  0  0  0  0  0  0  0  0
  1  2  1  0  0  0  0
  2 19  1  0  0  0  0
  2 18  1  0  0  0  0
  2  3  1  0  0  0  0
  3  7  1  0  0  0  0
  3  4  1  0  0  0  0
  4  5  2  0  0  0  0
  6  5  1  0  0  0  0
  7  6  2  0  0  0  0
  8 22  1  0  0  0  0
  8  7  1  0  0  0  0
  8  9  1  0  0  0  0
  9 10  1  0  0  0  0
 10 11  1  0  0  0  0
 10 23  1  0  0  0  0
 11 24  1  0  0  0  0
 12 11  2  0  0  0  0
 13  9  1  0  0  0  0
 13 12  2  0  0  0  0
 14 13  1  0  0  0  0
 15  1  1  0  0  0  0
 16  1  1  0  0  0  0
 17  1  1  0  0  0  0
 20  4  1  0  0  0  0
 21  8  1  0  0  0  0
 25 14  1  0  0  0  0
M  RAD  1  10   2
M  END
