266382342.xyz
 OpenBabel08132112093D
O=C1CCC(C(N1)C)n1cnnc1S
 26 27  0  0  1  0  0  0  0  0999 V2000
   -6.6075   -0.4327    1.6639 O   0  0  0  0  0  0  0  0  0  0  0  0
   -5.4130   -0.2977    1.8471 C   0  0  0  0  0  0  0  0  0  0  0  0
   -4.7681    1.0748    2.0018 C   0  0  0  0  0  0  0  0  0  0  0  0
   -3.3934    1.0575    2.6654 C   0  0  0  0  0  0  0  0  0  0  0  0
   -2.5289   -0.0274    2.0242 C   0  0  2  0  0  0  0  0  0  0  0  0
   -3.1553   -1.4153    2.2462 C   0  0  1  0  0  0  0  0  0  0  0  0
   -4.5584   -1.3726    1.8547 N   0  0  0  0  0  0  0  0  0  0  0  0
   -2.4306   -2.5211    1.4858 C   0  0  0  0  0  0  0  0  0  0  0  0
   -1.1548    0.0041    2.5044 N   0  0  0  0  0  0  0  0  0  0  0  0
   -0.7010    0.0003    3.8069 C   0  0  0  0  0  0  0  0  0  0  0  0
    0.6048    0.0009    3.8388 N   0  0  0  0  0  0  0  0  0  0  0  0
    1.0557   -0.0000    2.5399 N   0  0  0  0  0  0  0  0  0  0  0  0
    0.0000   -0.0000    1.7608 C   0  0  0  0  0  0  0  0  0  0  0  0
    0.0000    0.0000    0.0000 S   0  0  0  0  0  0  0  0  0  0  0  0
   -5.4829    1.7080    2.5450 H   0  0  0  0  0  0  0  0  0  0  0  0
   -4.6942    1.4955    0.9836 H   0  0  0  0  0  0  0  0  0  0  0  0
   -3.4952    0.8516    3.7443 H   0  0  0  0  0  0  0  0  0  0  0  0
   -2.8966    2.0345    2.5692 H   0  0  0  0  0  0  0  0  0  0  0  0
   -2.4871    0.1597    0.9388 H   0  0  0  0  0  0  0  0  0  0  0  0
   -3.0735   -1.6300    3.3316 H   0  0  0  0  0  0  0  0  0  0  0  0
   -5.0342   -2.2649    1.7511 H   0  0  0  0  0  0  0  0  0  0  0  0
   -1.3850   -2.6028    1.8148 H   0  0  0  0  0  0  0  0  0  0  0  0
   -2.4442   -2.3244    0.4030 H   0  0  0  0  0  0  0  0  0  0  0  0
   -2.9144   -3.4935    1.6684 H   0  0  0  0  0  0  0  0  0  0  0  0
   -1.3610    0.0012    4.6720 H   0  0  0  0  0  0  0  0  0  0  0  0
    1.3471    0.1020   -0.0518 H   0  0  0  0  0  0  0  0  0  0  0  0
  1  2  2  0  0  0  0
  2  7  1  0  0  0  0
  2  3  1  0  0  0  0
  3 15  1  0  0  0  0
  3  4  1  0  0  0  0
  4 17  1  0  0  0  0
  5  6  1  1  0  0  0
  5  9  1  0  0  0  0
  5  4  1  0  0  0  0
  6 20  1  1  0  0  0
  7  6  1  0  0  0  0
  8 24  1  0  0  0  0
  8 22  1  0  0  0  0
  8  6  1  0  0  0  0
  9 10  1  0  0  0  0
 10 11  2  0  0  0  0
 10 25  1  0  0  0  0
 12 11  1  0  0  0  0
 13  9  1  0  0  0  0
 13 12  2  0  0  0  0
 14 13  1  0  0  0  0
 16  3  1  0  0  0  0
 18  4  1  0  0  0  0
 19  5  1  0  0  0  0
 21  7  1  0  0  0  0
 23  8  1  0  0  0  0
 26 14  1  0  0  0  0
M  END
