266461402.xyz
 OpenBabel08132112093D
CCn1c(S)nnc1CS(=O)(=O)C
 24 24  0  0  0  0  0  0  0  0999 V2000
   -3.1037   -1.3774    1.7822 C   0  0  0  0  0  0  0  0  0  0  0  0
   -2.5296    0.0184    1.9976 C   0  0  0  0  0  0  0  0  0  0  0  0
   -1.1556   -0.0077    2.4934 N   0  0  0  0  0  0  0  0  0  0  0  0
    0.0000   -0.0000    1.7582 C   0  0  0  0  0  0  0  0  0  0  0  0
    0.0000    0.0000    0.0000 S   0  0  0  0  0  0  0  0  0  0  0  0
    1.0565    0.0000    2.5423 N   0  0  0  0  0  0  0  0  0  0  0  0
    0.5987   -0.0123    3.8316 N   0  0  0  0  0  0  0  0  0  0  0  0
   -0.7154   -0.0320    3.7985 C   0  0  0  0  0  0  0  0  0  0  0  0
   -1.5820    0.0127    4.9956 C   0  0  0  0  0  0  0  0  0  0  0  0
   -2.0904    1.7267    5.4284 S   0  0  0  0  0  0  0  0  0  0  0  0
   -2.9837    1.6342    6.5884 O   0  0  0  0  0  0  0  0  0  0  0  0
   -2.5431    2.3668    4.1806 O   0  0  0  0  0  0  0  0  0  0  0  0
   -0.5508    2.5112    5.9281 C   0  0  0  0  0  0  0  0  0  0  0  0
   -2.5011   -1.9454    1.0571 H   0  0  0  0  0  0  0  0  0  0  0  0
   -3.1310   -1.9471    2.7244 H   0  0  0  0  0  0  0  0  0  0  0  0
   -4.1320   -1.3067    1.3964 H   0  0  0  0  0  0  0  0  0  0  0  0
   -3.1179    0.6140    2.7079 H   0  0  0  0  0  0  0  0  0  0  0  0
   -2.5206    0.5905    1.0573 H   0  0  0  0  0  0  0  0  0  0  0  0
    1.3473    0.0967   -0.0549 H   0  0  0  0  0  0  0  0  0  0  0  0
   -1.0558   -0.3942    5.8686 H   0  0  0  0  0  0  0  0  0  0  0  0
   -2.5446   -0.5048    4.8789 H   0  0  0  0  0  0  0  0  0  0  0  0
   -0.2537    2.1029    6.9020 H   0  0  0  0  0  0  0  0  0  0  0  0
   -0.7840    3.5817    6.0038 H   0  0  0  0  0  0  0  0  0  0  0  0
    0.2127    2.3200    5.1628 H   0  0  0  0  0  0  0  0  0  0  0  0
  1  2  1  0  0  0  0
  1 15  1  0  0  0  0
  2  3  1  0  0  0  0
  2 17  1  0  0  0  0
  3  8  1  0  0  0  0
  4  3  1  0  0  0  0
  4  6  2  0  0  0  0
  5  4  1  0  0  0  0
  6  7  1  0  0  0  0
  8  7  2  0  0  0  0
  8  9  1  0  0  0  0
  9 10  1  0  0  0  0
  9 20  1  0  0  0  0
 10 13  1  0  0  0  0
 10 11  2  0  0  0  0
 12 10  2  0  0  0  0
 13 23  1  0  0  0  0
 13 22  1  0  0  0  0
 14  1  1  0  0  0  0
 16  1  1  0  0  0  0
 18  2  1  0  0  0  0
 19  5  1  0  0  0  0
 21  9  1  0  0  0  0
 24 13  1  0  0  0  0
M  END
