266521785.xyz
 OpenBabel08132112093D
CN(C(C)(C)C)C(=O)c1scc(c1)S
 29 29  0  0  0  0  0  0  0  0999 V2000
   -3.4700   -1.6199    3.9850 C   0  0  0  0  0  0  0  0  0  0  0  0
   -3.2780   -0.4156    4.7867 N   0  0  0  0  0  0  0  0  0  0  0  0
   -4.3815   -0.0304    5.7265 C   0  0  0  0  0  0  0  0  0  0  0  0
   -5.7336   -0.4191    5.1028 C   0  0  0  0  0  0  0  0  0  0  0  0
   -4.3969    1.4958    5.9227 C   0  0  0  0  0  0  0  0  0  0  0  0
   -4.1998   -0.7540    7.0712 C   0  0  0  0  0  0  0  0  0  0  0  0
   -2.0086    0.0813    4.9988 C   0  0  0  0  0  0  0  0  0  0  0  0
   -1.6576    0.6452    6.0284 O   0  0  0  0  0  0  0  0  0  0  0  0
   -1.0349   -0.0291    3.8730 C   0  0  0  0  0  0  0  0  0  0  0  0
    0.6546    0.0159    4.2758 S   0  0  0  0  0  0  0  0  0  0  0  0
    1.0998   -0.0000    2.6075 C   0  0  0  0  0  0  0  0  0  0  0  0
    0.0000   -0.0000    1.7754 C   0  0  0  0  0  0  0  0  0  0  0  0
   -1.2270   -0.0156    2.5080 C   0  0  0  0  0  0  0  0  0  0  0  0
    0.0000    0.0000    0.0000 S   0  0  0  0  0  0  0  0  0  0  0  0
   -3.8850   -2.4305    4.6060 H   0  0  0  0  0  0  0  0  0  0  0  0
   -2.5086   -1.9694    3.5970 H   0  0  0  0  0  0  0  0  0  0  0  0
   -4.1502   -1.4611    3.1337 H   0  0  0  0  0  0  0  0  0  0  0  0
   -5.8614    0.0385    4.1097 H   0  0  0  0  0  0  0  0  0  0  0  0
   -5.8684   -1.5054    5.0082 H   0  0  0  0  0  0  0  0  0  0  0  0
   -6.5397   -0.0465    5.7508 H   0  0  0  0  0  0  0  0  0  0  0  0
   -5.2688    1.7724    6.5344 H   0  0  0  0  0  0  0  0  0  0  0  0
   -4.4874    2.0024    4.9490 H   0  0  0  0  0  0  0  0  0  0  0  0
   -3.4897    1.8519    6.4207 H   0  0  0  0  0  0  0  0  0  0  0  0
   -4.1960   -1.8472    6.9317 H   0  0  0  0  0  0  0  0  0  0  0  0
   -5.0272   -0.5066    7.7547 H   0  0  0  0  0  0  0  0  0  0  0  0
   -3.2522   -0.4540    7.5365 H   0  0  0  0  0  0  0  0  0  0  0  0
    2.1499   -0.0061    2.3202 H   0  0  0  0  0  0  0  0  0  0  0  0
   -2.2106    0.0092    2.0393 H   0  0  0  0  0  0  0  0  0  0  0  0
    1.3163    0.2641   -0.1529 H   0  0  0  0  0  0  0  0  0  0  0  0
  1 15  1  0  0  0  0
  1  2  1  0  0  0  0
  2  7  1  0  0  0  0
  2  3  1  0  0  0  0
  3  5  1  0  0  0  0
  3  6  1  0  0  0  0
  4  3  1  0  0  0  0
  4 20  1  0  0  0  0
  5 23  1  0  0  0  0
  5 21  1  0  0  0  0
  6 26  1  0  0  0  0
  6 25  1  0  0  0  0
  7  8  2  0  0  0  0
  9 10  1  0  0  0  0
  9  7  1  0  0  0  0
 11 10  1  0  0  0  0
 12 13  1  0  0  0  0
 12 11  2  0  0  0  0
 13  9  2  0  0  0  0
 14 12  1  0  0  0  0
 16  1  1  0  0  0  0
 17  1  1  0  0  0  0
 18  4  1  0  0  0  0
 19  4  1  0  0  0  0
 22  5  1  0  0  0  0
 24  6  1  0  0  0  0
 27 11  1  0  0  0  0
 28 13  1  0  0  0  0
 29 14  1  0  0  0  0
M  END
