266528667.xyz
 OpenBabel08132112093D
O=C(C(S)C)NC(c1scc(n1)C)C
 28 28  0  0  1  0  0  0  0  0999 V2000
   -0.6819   -1.4254    3.6579 O   0  0  0  0  0  0  0  0  0  0  0  0
   -0.8782   -1.0891    2.5001 C   0  0  0  0  0  0  0  0  0  0  0  0
   -0.0000   -0.0000    1.8468 C   0  0  2  0  0  0  0  0  0  0  0  0
    0.0000    0.0000    0.0000 S   0  0  0  0  0  0  0  0  0  0  0  0
    1.4059   -0.0000    2.4372 C   0  0  0  0  0  0  0  0  0  0  0  0
   -1.8835   -1.5904    1.7429 N   0  0  0  0  0  0  0  0  0  0  0  0
   -2.8224   -2.5749    2.2744 C   0  0  1  0  0  0  0  0  0  0  0  0
   -4.1351   -2.4521    1.5482 C   0  0  0  0  0  0  0  0  0  0  0  0
   -4.3090   -2.9866   -0.1216 S   0  0  0  0  0  0  0  0  0  0  0  0
   -5.9500   -2.4359   -0.0849 C   0  0  0  0  0  0  0  0  0  0  0  0
   -6.2560   -1.9122    1.1469 C   0  0  0  0  0  0  0  0  0  0  0  0
   -5.2128   -1.9296    2.0485 N   0  0  0  0  0  0  0  0  0  0  0  0
   -7.5794   -1.3495    1.5641 C   0  0  0  0  0  0  0  0  0  0  0  0
   -2.2386   -3.9918    2.2382 C   0  0  0  0  0  0  0  0  0  0  0  0
   -0.4939    0.9587    2.0827 H   0  0  0  0  0  0  0  0  0  0  0  0
    0.6810   -1.1620   -0.1442 H   0  0  0  0  0  0  0  0  0  0  0  0
    1.9826    0.8582    2.0658 H   0  0  0  0  0  0  0  0  0  0  0  0
    1.3423    0.0410    3.5332 H   0  0  0  0  0  0  0  0  0  0  0  0
    1.9418   -0.9243    2.1688 H   0  0  0  0  0  0  0  0  0  0  0  0
   -1.9485   -1.2977    0.7718 H   0  0  0  0  0  0  0  0  0  0  0  0
   -3.0223   -2.2975    3.3193 H   0  0  0  0  0  0  0  0  0  0  0  0
   -6.5983   -2.5336   -0.9535 H   0  0  0  0  0  0  0  0  0  0  0  0
   -7.9789   -1.9051    2.4278 H   0  0  0  0  0  0  0  0  0  0  0  0
   -7.4692   -0.2995    1.8795 H   0  0  0  0  0  0  0  0  0  0  0  0
   -8.3121   -1.3963    0.7465 H   0  0  0  0  0  0  0  0  0  0  0  0
   -2.0042   -4.2962    1.2054 H   0  0  0  0  0  0  0  0  0  0  0  0
   -2.9505   -4.7164    2.6613 H   0  0  0  0  0  0  0  0  0  0  0  0
   -1.3142   -4.0161    2.8322 H   0  0  0  0  0  0  0  0  0  0  0  0
  2  1  2  0  0  0  0
  3 15  1  1  0  0  0
  3  5  1  0  0  0  0
  3  2  1  0  0  0  0
  4  3  1  0  0  0  0
  5 18  1  0  0  0  0
  6  7  1  0  0  0  0
  6  2  1  0  0  0  0
  7 21  1  1  0  0  0
  8 12  2  0  0  0  0
  8  7  1  0  0  0  0
  9 10  1  0  0  0  0
  9  8  1  0  0  0  0
 10 11  1  0  0  0  0
 11 13  1  0  0  0  0
 11 12  2  0  0  0  0
 13 24  1  0  0  0  0
 13 23  1  0  0  0  0
 14  7  1  0  0  0  0
 14 27  1  0  0  0  0
 14 28  1  0  0  0  0
 16  4  1  0  0  0  0
 17  5  1  0  0  0  0
 19  5  1  0  0  0  0
 20  6  1  0  0  0  0
 22 10  1  0  0  0  0
 25 13  1  0  0  0  0
 26 14  1  0  0  0  0
M  RAD  1  10   2
M  END
