26685651.xyz
 OpenBabel08132112093D
COc1ccc(cc1Cn1ccc(n1)[N+](=O)[O-])/C=C/1\N=C(N(C1=O)CC1CCCO1)S
 52 55  0  0  1  0  0  0  0  0999 V2000
    7.8924   -0.0573    4.7985 C   0  0  0  0  0  0  0  0  0  0  0  0
    6.9309   -0.0525    5.8342 O   0  0  0  0  0  0  0  0  0  0  0  0
    5.6171   -0.0345    5.5322 C   0  0  0  0  0  0  0  0  0  0  0  0
    5.0953   -0.0549    4.2299 C   0  0  0  0  0  0  0  0  0  0  0  0
    3.7179   -0.0320    4.0261 C   0  0  0  0  0  0  0  0  0  0  0  0
    2.8210    0.0128    5.1141 C   0  0  0  0  0  0  0  0  0  0  0  0
    3.3698    0.0358    6.4164 C   0  0  0  0  0  0  0  0  0  0  0  0
    4.7404    0.0118    6.6421 C   0  0  0  0  0  0  0  0  0  0  0  0
    5.3199    0.0486    8.0301 C   0  0  0  0  0  0  0  0  0  0  0  0
    6.0548    1.2892    8.2856 N   0  0  0  0  0  0  0  0  0  0  0  0
    5.7153    2.5498    7.8818 C   0  0  0  0  0  0  0  0  0  0  0  0
    6.6960    3.3986    8.3620 C   0  0  0  0  0  0  0  0  0  0  0  0
    7.5728    2.5230    9.0394 C   0  0  0  0  0  0  0  0  0  0  0  0
    7.1819    1.2558    8.9886 N   0  0  0  0  0  0  0  0  0  0  0  0
    8.7965    2.8986    9.7258 N   0  0  0  0  0  0  0  0  0  0  0  0
    9.0731    4.0916    9.7094 O   0  0  0  0  0  0  0  0  0  0  0  0
    9.4528    2.0236   10.2588 O   0  0  0  0  0  0  0  0  0  0  0  0
    1.3804    0.0378    4.9600 C   0  0  0  0  0  0  0  0  0  0  0  0
    0.6389    0.0327    3.8198 C   0  0  0  0  0  0  0  0  0  0  0  0
    1.0725   -0.0000    2.4931 N   0  0  0  0  0  0  0  0  0  0  0  0
   -0.0000   -0.0000    1.7557 C   0  0  0  0  0  0  0  0  0  0  0  0
   -1.1896    0.0252    2.4734 N   0  0  0  0  0  0  0  0  0  0  0  0
   -0.8526    0.0538    3.8418 C   0  0  0  0  0  0  0  0  0  0  0  0
   -1.6478    0.0898    4.7579 O   0  0  0  0  0  0  0  0  0  0  0  0
   -2.5532    0.1178    1.9919 C   0  0  0  0  0  0  0  0  0  0  0  0
   -3.1271   -1.2296    1.5589 C   0  0  2  0  0  0  0  0  0  0  0  0
   -3.1506   -2.3198    2.6422 C   0  0  0  0  0  0  0  0  0  0  0  0
   -2.8524   -3.5908    1.8399 C   0  0  0  0  0  0  0  0  0  0  0  0
   -1.8801   -3.0625    0.7865 C   0  0  0  0  0  0  0  0  0  0  0  0
   -2.3276   -1.7422    0.4918 O   0  0  0  0  0  0  0  0  0  0  0  0
    0.0000    0.0000    0.0000 S   0  0  0  0  0  0  0  0  0  0  0  0
    7.7996    0.8379    4.1600 H   0  0  0  0  0  0  0  0  0  0  0  0
    8.8735   -0.0510    5.2894 H   0  0  0  0  0  0  0  0  0  0  0  0
    7.8051   -0.9600    4.1696 H   0  0  0  0  0  0  0  0  0  0  0  0
    5.7608   -0.0913    3.3679 H   0  0  0  0  0  0  0  0  0  0  0  0
    3.3087   -0.0489    3.0161 H   0  0  0  0  0  0  0  0  0  0  0  0
    2.6941    0.0736    7.2756 H   0  0  0  0  0  0  0  0  0  0  0  0
    6.0525   -0.7541    8.1836 H   0  0  0  0  0  0  0  0  0  0  0  0
    4.5213   -0.0593    8.7804 H   0  0  0  0  0  0  0  0  0  0  0  0
    4.8244    2.7328    7.2868 H   0  0  0  0  0  0  0  0  0  0  0  0
    6.7901    4.4736    8.2521 H   0  0  0  0  0  0  0  0  0  0  0  0
    0.7880    0.0630    5.8801 H   0  0  0  0  0  0  0  0  0  0  0  0
   -2.5848    0.8184    1.1434 H   0  0  0  0  0  0  0  0  0  0  0  0
   -3.1505    0.5341    2.8170 H   0  0  0  0  0  0  0  0  0  0  0  0
   -4.1483   -1.0457    1.1734 H   0  0  0  0  0  0  0  0  0  0  0  0
   -4.1091   -2.3484    3.1792 H   0  0  0  0  0  0  0  0  0  0  0  0
   -2.3628   -2.1398    3.3886 H   0  0  0  0  0  0  0  0  0  0  0  0
   -2.4283   -4.4025    2.4489 H   0  0  0  0  0  0  0  0  0  0  0  0
   -3.7679   -3.9684    1.3560 H   0  0  0  0  0  0  0  0  0  0  0  0
   -0.8440   -3.0330    1.1763 H   0  0  0  0  0  0  0  0  0  0  0  0
   -1.8756   -3.6464   -0.1468 H   0  0  0  0  0  0  0  0  0  0  0  0
    1.2905    0.4098   -0.0369 H   0  0  0  0  0  0  0  0  0  0  0  0
  1 33  1  0  0  0  0
  1  2  1  0  0  0  0
  3  2  1  0  0  0  0
  3  8  2  0  0  0  0
  4  3  1  0  0  0  0
  5  4  2  0  0  0  0
  5  6  1  0  0  0  0
  6  7  2  0  0  0  0
  7  8  1  0  0  0  0
  7 37  1  0  0  0  0
  8  9  1  0  0  0  0
  9 38  1  0  0  0  0
  9 10  1  0  0  0  0
  9 39  1  0  0  0  0
 10 14  1  0  0  0  0
 11 10  1  0  0  0  0
 11 12  2  0  0  0  0
 12 13  1  0  0  0  0
 13 15  1  0  0  0  0
 14 13  2  0  0  0  0
 15 17  2  0  0  0  0
 16 15  2  0  0  0  0
 18  6  1  0  0  0  0
 18 42  1  0  0  0  0
 19 23  1  0  0  0  0
 19 18  1  0  0  0  0
 20 19  2  0  0  0  0
 21 22  1  0  0  0  0
 21 20  2  0  0  0  0
 22 23  1  0  0  0  0
 23 24  2  0  0  0  0
 25 22  1  0  0  0  0
 25 44  1  0  0  0  0
 26 45  1  6  0  0  0
 26 25  1  0  0  0  0
 26 27  1  0  0  0  0
 27 46  1  0  0  0  0
 27 47  1  0  0  0  0
 28 48  1  0  0  0  0
 28 27  1  0  0  0  0
 29 50  1  0  0  0  0
 29 28  1  0  0  0  0
 30 29  1  0  0  0  0
 30 26  1  0  0  0  0
 31 21  1  0  0  0  0
 32  1  1  0  0  0  0
 34  1  1  0  0  0  0
 35  4  1  0  0  0  0
 36  5  1  0  0  0  0
 40 11  1  0  0  0  0
 41 12  1  0  0  0  0
 43 25  1  0  0  0  0
 49 28  1  0  0  0  0
 51 29  1  0  0  0  0
 52 31  1  0  0  0  0
M  RAD  1  18   2
M  END
