26810906.xyz
 OpenBabel08132112093D
COCCCN1C(=N/C(=C\c2ccc(c(c2)OCC)OC(F)F)/C1=O)S
 46 47  0  0  0  0  0  0  0  0999 V2000
    5.2538    1.3017    3.8151 C   0  0  0  0  0  0  0  0  0  0  0  0
    5.3195    0.8264    2.4888 O   0  0  0  0  0  0  0  0  0  0  0  0
    4.5731    1.5684    1.5536 C   0  0  0  0  0  0  0  0  0  0  0  0
    3.0622    1.5145    1.7886 C   0  0  0  0  0  0  0  0  0  0  0  0
    2.5559    0.0764    1.9147 C   0  0  0  0  0  0  0  0  0  0  0  0
    1.2050   -0.0000    2.4363 N   0  0  0  0  0  0  0  0  0  0  0  0
   -0.0000   -0.0000    1.7557 C   0  0  0  0  0  0  0  0  0  0  0  0
   -1.0562   -0.0007    2.5111 N   0  0  0  0  0  0  0  0  0  0  0  0
   -0.5867    0.0179    3.8293 C   0  0  0  0  0  0  0  0  0  0  0  0
   -1.2986    0.0235    4.9871 C   0  0  0  0  0  0  0  0  0  0  0  0
   -2.7363    0.0082    5.1794 C   0  0  0  0  0  0  0  0  0  0  0  0
   -3.2466    0.0188    6.4929 C   0  0  0  0  0  0  0  0  0  0  0  0
   -4.6171    0.0066    6.7409 C   0  0  0  0  0  0  0  0  0  0  0  0
   -5.5093   -0.0097    5.6658 C   0  0  0  0  0  0  0  0  0  0  0  0
   -5.0256   -0.0264    4.3391 C   0  0  0  0  0  0  0  0  0  0  0  0
   -3.6553   -0.0215    4.1078 C   0  0  0  0  0  0  0  0  0  0  0  0
   -5.8885   -0.0002    3.2851 O   0  0  0  0  0  0  0  0  0  0  0  0
   -6.5757   -1.2195    2.9961 C   0  0  0  0  0  0  0  0  0  0  0  0
   -7.5035   -0.9678    1.8269 C   0  0  0  0  0  0  0  0  0  0  0  0
   -6.8873   -0.0168    5.7861 O   0  0  0  0  0  0  0  0  0  0  0  0
   -7.5123    0.3735    6.9310 C   0  0  0  0  0  0  0  0  0  0  0  0
   -7.0914    1.5882    7.3407 F   0  0  0  0  0  0  0  0  0  0  0  0
   -7.2782   -0.4895    7.9524 F   0  0  0  0  0  0  0  0  0  0  0  0
    0.9080    0.0382    3.8107 C   0  0  0  0  0  0  0  0  0  0  0  0
    1.7289    0.0875    4.7043 O   0  0  0  0  0  0  0  0  0  0  0  0
    0.0000    0.0000    0.0000 S   0  0  0  0  0  0  0  0  0  0  0  0
    4.2713    1.1124    4.2857 H   0  0  0  0  0  0  0  0  0  0  0  0
    5.4699    2.3878    3.8689 H   0  0  0  0  0  0  0  0  0  0  0  0
    6.0211    0.7652    4.3918 H   0  0  0  0  0  0  0  0  0  0  0  0
    4.9027    2.6282    1.5414 H   0  0  0  0  0  0  0  0  0  0  0  0
    4.8181    1.1370    0.5689 H   0  0  0  0  0  0  0  0  0  0  0  0
    2.8055    2.0536    2.7144 H   0  0  0  0  0  0  0  0  0  0  0  0
    2.5455    2.0359    0.9657 H   0  0  0  0  0  0  0  0  0  0  0  0
    3.2007   -0.4737    2.6136 H   0  0  0  0  0  0  0  0  0  0  0  0
    2.5969   -0.4521    0.9491 H   0  0  0  0  0  0  0  0  0  0  0  0
   -0.6839    0.0431    5.8924 H   0  0  0  0  0  0  0  0  0  0  0  0
   -2.5536    0.0362    7.3370 H   0  0  0  0  0  0  0  0  0  0  0  0
   -4.9875    0.0096    7.7638 H   0  0  0  0  0  0  0  0  0  0  0  0
   -3.2931   -0.0266    3.0809 H   0  0  0  0  0  0  0  0  0  0  0  0
   -7.1421   -1.5530    3.8824 H   0  0  0  0  0  0  0  0  0  0  0  0
   -5.8345   -2.0047    2.7549 H   0  0  0  0  0  0  0  0  0  0  0  0
   -8.2379   -0.1884    2.0814 H   0  0  0  0  0  0  0  0  0  0  0  0
   -6.9354   -0.6299    0.9467 H   0  0  0  0  0  0  0  0  0  0  0  0
   -8.0460   -1.8887    1.5626 H   0  0  0  0  0  0  0  0  0  0  0  0
   -8.5933    0.4008    6.7262 H   0  0  0  0  0  0  0  0  0  0  0  0
   -1.3502    0.0014   -0.0659 H   0  0  0  0  0  0  0  0  0  0  0  0
  1 28  1  0  0  0  0
  1 27  1  0  0  0  0
  1 29  1  0  0  0  0
  2  1  1  0  0  0  0
  3  4  1  0  0  0  0
  3  2  1  0  0  0  0
  4  5  1  0  0  0  0
  4 32  1  0  0  0  0
  5  6  1  0  0  0  0
  5 34  1  0  0  0  0
  6 24  1  0  0  0  0
  7  6  1  0  0  0  0
  7  8  2  0  0  0  0
  8  9  2  0  0  0  0
  9 10  1  0  0  0  0
 10 11  1  0  0  0  0
 10 36  1  0  0  0  0
 11 12  2  0  0  0  0
 12 13  1  0  0  0  0
 12 37  1  0  0  0  0
 13 38  1  0  0  0  0
 14 20  1  0  0  0  0
 14 13  2  0  0  0  0
 15 14  1  0  0  0  0
 16 15  2  0  0  0  0
 16 11  1  0  0  0  0
 17 15  1  0  0  0  0
 18 17  1  0  0  0  0
 18 40  1  0  0  0  0
 19 42  1  0  0  0  0
 19 18  1  0  0  0  0
 20 21  1  0  0  0  0
 21 22  1  0  0  0  0
 21 23  1  0  0  0  0
 24  9  1  0  0  0  0
 24 25  2  0  0  0  0
 26  7  1  0  0  0  0
 30  3  1  0  0  0  0
 31  3  1  0  0  0  0
 33  4  1  0  0  0  0
 35  5  1  0  0  0  0
 39 16  1  0  0  0  0
 41 18  1  0  0  0  0
 43 19  1  0  0  0  0
 44 19  1  0  0  0  0
 45 21  1  0  0  0  0
 46 26  1  0  0  0  0
M  RAD  1  10   2
M  END
