27334502.xyz
 OpenBabel08132112093D
Cc1c(NC(=O)CC2SC(=NC2=O)S)cccc1C
 33 34  0  0  1  0  0  0  0  0999 V2000
    3.2221    4.9353    6.8431 C   0  0  0  0  0  0  0  0  0  0  0  0
    2.3953    5.6157    5.7774 C   0  0  0  0  0  0  0  0  0  0  0  0
    1.5320    4.8393    4.9668 C   0  0  0  0  0  0  0  0  0  0  0  0
    1.4957    3.4488    5.2080 N   0  0  0  0  0  0  0  0  0  0  0  0
    0.7590    2.4772    4.5839 C   0  0  0  0  0  0  0  0  0  0  0  0
   -0.0024    2.6643    3.6528 O   0  0  0  0  0  0  0  0  0  0  0  0
    0.9375    1.0857    5.1897 C   0  0  0  0  0  0  0  0  0  0  0  0
    0.5908   -0.0199    4.1998 C   0  0  2  0  0  0  0  0  0  0  0  0
    1.5453   -0.0000    2.6421 S   0  0  0  0  0  0  0  0  0  0  0  0
    0.0000    0.0000    1.7475 C   0  0  0  0  0  0  0  0  0  0  0  0
   -1.1042   -0.0138    2.3973 N   0  0  0  0  0  0  0  0  0  0  0  0
   -0.9131    0.0270    3.7811 C   0  0  0  0  0  0  0  0  0  0  0  0
   -1.7815    0.0528    4.6124 O   0  0  0  0  0  0  0  0  0  0  0  0
    0.0000    0.0000    0.0000 S   0  0  0  0  0  0  0  0  0  0  0  0
    0.7495    5.4364    3.9670 C   0  0  0  0  0  0  0  0  0  0  0  0
    0.8293    6.8139    3.7775 C   0  0  0  0  0  0  0  0  0  0  0  0
    1.6736    7.5919    4.5672 C   0  0  0  0  0  0  0  0  0  0  0  0
    2.4614    7.0085    5.5697 C   0  0  0  0  0  0  0  0  0  0  0  0
    3.3629    7.8871    6.4049 C   0  0  0  0  0  0  0  0  0  0  0  0
    2.5880    4.4216    7.5882 H   0  0  0  0  0  0  0  0  0  0  0  0
    3.8482    5.6429    7.3971 H   0  0  0  0  0  0  0  0  0  0  0  0
    3.9024    4.1784    6.4124 H   0  0  0  0  0  0  0  0  0  0  0  0
    2.0892    3.1264    5.9602 H   0  0  0  0  0  0  0  0  0  0  0  0
    1.9490    0.9488    5.6031 H   0  0  0  0  0  0  0  0  0  0  0  0
    0.2226    0.9897    6.0264 H   0  0  0  0  0  0  0  0  0  0  0  0
    0.7508   -0.9957    4.6830 H   0  0  0  0  0  0  0  0  0  0  0  0
    1.3469    0.0186   -0.1413 H   0  0  0  0  0  0  0  0  0  0  0  0
    0.0967    4.8152    3.3604 H   0  0  0  0  0  0  0  0  0  0  0  0
    0.2210    7.2830    3.0007 H   0  0  0  0  0  0  0  0  0  0  0  0
    1.7271    8.6717    4.4090 H   0  0  0  0  0  0  0  0  0  0  0  0
    4.4233    7.6003    6.3091 H   0  0  0  0  0  0  0  0  0  0  0  0
    3.1099    7.8373    7.4769 H   0  0  0  0  0  0  0  0  0  0  0  0
    3.2760    8.9377    6.0941 H   0  0  0  0  0  0  0  0  0  0  0  0
  1 21  1  0  0  0  0
  1 20  1  0  0  0  0
  2  1  1  0  0  0  0
  3  4  1  0  0  0  0
  3  2  2  0  0  0  0
  4 23  1  0  0  0  0
  5  7  1  0  0  0  0
  5  4  1  0  0  0  0
  6  5  2  0  0  0  0
  7 24  1  0  0  0  0
  7 25  1  0  0  0  0
  8 26  1  1  0  0  0
  8  7  1  0  0  0  0
  9  8  1  0  0  0  0
 10 11  2  0  0  0  0
 10  9  1  0  0  0  0
 11 12  2  0  0  0  0
 12  8  1  0  0  0  0
 12 13  2  0  0  0  0
 14 10  1  0  0  0  0
 15  3  1  0  0  0  0
 16 15  2  0  0  0  0
 16 17  1  0  0  0  0
 17 18  2  0  0  0  0
 18  2  1  0  0  0  0
 18 19  1  0  0  0  0
 19 32  1  0  0  0  0
 22  1  1  0  0  0  0
 27 14  1  0  0  0  0
 28 15  1  0  0  0  0
 29 16  1  0  0  0  0
 30 17  1  0  0  0  0
 31 19  1  0  0  0  0
 33 19  1  0  0  0  0
M  END
