27334680.xyz
 OpenBabel08132112093D
Cc1cccc(c1)C1NC(=NC(=N1)N)S
 27 28  0  0  1  0  0  0  0  0999 V2000
   -0.0382   -5.2721    3.8649 C   0  0  0  0  0  0  0  0  0  0  0  0
    0.9939   -4.1837    4.0223 C   0  0  0  0  0  0  0  0  0  0  0  0
    2.3482   -4.4972    4.2229 C   0  0  0  0  0  0  0  0  0  0  0  0
    3.3041   -3.4877    4.3450 C   0  0  0  0  0  0  0  0  0  0  0  0
    2.9196   -2.1466    4.2652 C   0  0  0  0  0  0  0  0  0  0  0  0
    1.5763   -1.8125    4.0632 C   0  0  0  0  0  0  0  0  0  0  0  0
    0.6264   -2.8338    3.9515 C   0  0  0  0  0  0  0  0  0  0  0  0
    1.1676   -0.3491    3.9023 C   0  0  1  0  0  0  0  0  0  0  0  0
    1.1732   -0.0000    2.4504 N   0  0  0  0  0  0  0  0  0  0  0  0
   -0.0000   -0.0000    1.7795 C   0  0  0  0  0  0  0  0  0  0  0  0
   -1.1586    0.0476    2.3477 N   0  0  0  0  0  0  0  0  0  0  0  0
   -1.1192    0.1170    3.7465 C   0  0  0  0  0  0  0  0  0  0  0  0
   -0.0887   -0.0411    4.5091 N   0  0  0  0  0  0  0  0  0  0  0  0
   -2.3377    0.4000    4.2890 N   0  0  0  0  0  0  0  0  0  0  0  0
    0.0000    0.0000    0.0000 S   0  0  0  0  0  0  0  0  0  0  0  0
   -1.0229   -4.9492    4.2350 H   0  0  0  0  0  0  0  0  0  0  0  0
   -0.1633   -5.5466    2.8028 H   0  0  0  0  0  0  0  0  0  0  0  0
    0.2508   -6.1857    4.4062 H   0  0  0  0  0  0  0  0  0  0  0  0
    2.6530   -5.5451    4.2930 H   0  0  0  0  0  0  0  0  0  0  0  0
    4.3521   -3.7474    4.5146 H   0  0  0  0  0  0  0  0  0  0  0  0
    3.6657   -1.3534    4.3740 H   0  0  0  0  0  0  0  0  0  0  0  0
   -0.4242   -2.5672    3.8167 H   0  0  0  0  0  0  0  0  0  0  0  0
    1.9598    0.2669    4.3653 H   0  0  0  0  0  0  0  0  0  0  0  0
    2.0430   -0.1219    1.9476 H   0  0  0  0  0  0  0  0  0  0  0  0
   -3.1470    0.3702    3.6863 H   0  0  0  0  0  0  0  0  0  0  0  0
   -2.4450    0.3357    5.2915 H   0  0  0  0  0  0  0  0  0  0  0  0
    1.3202   -0.2506   -0.1645 H   0  0  0  0  0  0  0  0  0  0  0  0
  1  2  1  0  0  0  0
  1 16  1  0  0  0  0
  1 18  1  0  0  0  0
  2  3  1  0  0  0  0
  3 19  1  0  0  0  0
  3  4  2  0  0  0  0
  4 20  1  0  0  0  0
  5  4  1  0  0  0  0
  5 21  1  0  0  0  0
  6  5  2  0  0  0  0
  7  2  2  0  0  0  0
  7  6  1  0  0  0  0
  8  6  1  0  0  0  0
  8 23  1  1  0  0  0
  8 13  1  0  0  0  0
  9  8  1  0  0  0  0
 10 11  2  0  0  0  0
 10  9  1  0  0  0  0
 11 12  2  0  0  0  0
 12 14  1  0  0  0  0
 12 13  2  0  0  0  0
 14 26  1  0  0  0  0
 15 10  1  0  0  0  0
 17  1  1  0  0  0  0
 22  7  1  0  0  0  0
 24  9  1  0  0  0  0
 25 14  1  0  0  0  0
 27 15  1  0  0  0  0
M  END
