27334538.xyz
 OpenBabel08132112093D
COc1cc(OC)ccc1NC(=O)CC1SC(=NC1=O)S
 35 36  0  0  1  0  0  0  0  0999 V2000
   -1.9102   -4.7783    8.5502 C   0  0  0  0  0  0  0  0  0  0  0  0
   -1.2065   -3.6118    8.1858 O   0  0  0  0  0  0  0  0  0  0  0  0
   -1.1428   -2.5738    9.0675 C   0  0  0  0  0  0  0  0  0  0  0  0
   -1.6939   -2.5923   10.3429 C   0  0  0  0  0  0  0  0  0  0  0  0
   -1.5729   -1.4652   11.1771 C   0  0  0  0  0  0  0  0  0  0  0  0
   -2.1453   -1.5853   12.4039 O   0  0  0  0  0  0  0  0  0  0  0  0
   -2.0736   -0.4949   13.2917 C   0  0  0  0  0  0  0  0  0  0  0  0
   -0.8999   -0.3302   10.7189 C   0  0  0  0  0  0  0  0  0  0  0  0
   -0.3474   -0.3166    9.4304 C   0  0  0  0  0  0  0  0  0  0  0  0
   -0.4576   -1.4256    8.5931 C   0  0  0  0  0  0  0  0  0  0  0  0
    0.0619   -1.5081    7.2896 N   0  0  0  0  0  0  0  0  0  0  0  0
    0.7075   -0.5457    6.5789 C   0  0  0  0  0  0  0  0  0  0  0  0
    0.9726    0.5735    6.9884 O   0  0  0  0  0  0  0  0  0  0  0  0
    1.1521   -0.9770    5.1774 C   0  0  0  0  0  0  0  0  0  0  0  0
    0.7201    0.0802    4.1615 C   0  0  1  0  0  0  0  0  0  0  0  0
    1.5857   -0.0000    2.5508 S   0  0  0  0  0  0  0  0  0  0  0  0
    0.0000    0.0000    1.7480 C   0  0  0  0  0  0  0  0  0  0  0  0
   -1.0705    0.0004    2.4627 N   0  0  0  0  0  0  0  0  0  0  0  0
   -0.7894   -0.0297    3.8354 C   0  0  0  0  0  0  0  0  0  0  0  0
   -1.6138   -0.1576    4.7049 O   0  0  0  0  0  0  0  0  0  0  0  0
    0.0000    0.0000    0.0000 S   0  0  0  0  0  0  0  0  0  0  0  0
   -2.9709   -4.5596    8.7643 H   0  0  0  0  0  0  0  0  0  0  0  0
   -1.4604   -5.2627    9.4346 H   0  0  0  0  0  0  0  0  0  0  0  0
   -1.8490   -5.4633    7.6945 H   0  0  0  0  0  0  0  0  0  0  0  0
   -2.2263   -3.4584   10.7312 H   0  0  0  0  0  0  0  0  0  0  0  0
   -1.0285   -0.2369   13.5419 H   0  0  0  0  0  0  0  0  0  0  0  0
   -2.5948   -0.8008   14.2087 H   0  0  0  0  0  0  0  0  0  0  0  0
   -2.5686    0.4031   12.8797 H   0  0  0  0  0  0  0  0  0  0  0  0
   -0.7951    0.5559   11.3430 H   0  0  0  0  0  0  0  0  0  0  0  0
    0.1722    0.5632    9.0592 H   0  0  0  0  0  0  0  0  0  0  0  0
   -0.1651   -2.3744    6.8155 H   0  0  0  0  0  0  0  0  0  0  0  0
    0.7733   -1.9701    4.8931 H   0  0  0  0  0  0  0  0  0  0  0  0
    2.2518   -1.0328    5.2052 H   0  0  0  0  0  0  0  0  0  0  0  0
    0.9108    1.0702    4.6071 H   0  0  0  0  0  0  0  0  0  0  0  0
   -1.3511   -0.0120   -0.0856 H   0  0  0  0  0  0  0  0  0  0  0  0
  1 22  1  0  0  0  0
  1 23  1  0  0  0  0
  2  1  1  0  0  0  0
  2  3  1  0  0  0  0
  3  4  1  0  0  0  0
  4 25  1  0  0  0  0
  4  5  2  0  0  0  0
  5  6  1  0  0  0  0
  6  7  1  0  0  0  0
  7 26  1  0  0  0  0
  7 27  1  0  0  0  0
  8  5  1  0  0  0  0
  8 29  1  0  0  0  0
  9  8  2  0  0  0  0
 10  3  2  0  0  0  0
 10  9  1  0  0  0  0
 11 10  1  0  0  0  0
 12 13  2  0  0  0  0
 12 11  1  0  0  0  0
 14 33  1  0  0  0  0
 14 12  1  0  0  0  0
 15 34  1  1  0  0  0
 15 14  1  0  0  0  0
 16 15  1  0  0  0  0
 17 18  2  0  0  0  0
 17 16  1  0  0  0  0
 18 19  2  0  0  0  0
 19 15  1  0  0  0  0
 19 20  2  0  0  0  0
 21 17  1  0  0  0  0
 24  1  1  0  0  0  0
 28  7  1  0  0  0  0
 30  9  1  0  0  0  0
 31 11  1  0  0  0  0
 32 14  1  0  0  0  0
 35 21  1  0  0  0  0
M  END
