27339438.xyz
 OpenBabel08132112093D
CCc1nnc(n1/N=C/c1ccc(o1)COc1ccc(c(c1)Cl)Cl)S
 39 41  0  0  0  0  0  0  0  0999 V2000
    0.6775   -0.0005    6.3535 C   0  0  0  0  0  0  0  0  0  0  0  0
    1.5332   -0.0001    5.0872 C   0  0  0  0  0  0  0  0  0  0  0  0
    0.6987   -0.0002    3.8451 C   0  0  0  0  0  0  0  0  0  0  0  0
   -0.6044   -0.0001    3.8290 N   0  0  0  0  0  0  0  0  0  0  0  0
   -1.0508   -0.0000    2.5211 N   0  0  0  0  0  0  0  0  0  0  0  0
   -0.0000   -0.0000    1.7521 C   0  0  0  0  0  0  0  0  0  0  0  0
    1.1645   -0.0000    2.5202 N   0  0  0  0  0  0  0  0  0  0  0  0
    2.3752   -0.0003    1.9219 N   0  0  0  0  0  0  0  0  0  0  0  0
    3.4797   -0.0001    2.5784 C   0  0  0  0  0  0  0  0  0  0  0  0
    4.7443   -0.0006    1.8903 C   0  0  0  0  0  0  0  0  0  0  0  0
    6.0364   -0.0011    2.3693 C   0  0  0  0  0  0  0  0  0  0  0  0
    6.8951   -0.0016    1.2281 C   0  0  0  0  0  0  0  0  0  0  0  0
    6.0650   -0.0015    0.1381 C   0  0  0  0  0  0  0  0  0  0  0  0
    4.7686   -0.0009    0.5238 O   0  0  0  0  0  0  0  0  0  0  0  0
    6.3162   -0.0014   -1.3303 C   0  0  0  0  0  0  0  0  0  0  0  0
    7.7102   -0.0055   -1.5216 O   0  0  0  0  0  0  0  0  0  0  0  0
    8.2025   -0.0043   -2.7873 C   0  0  0  0  0  0  0  0  0  0  0  0
    9.6011   -0.0074   -2.9101 C   0  0  0  0  0  0  0  0  0  0  0  0
   10.1864   -0.0065   -4.1691 C   0  0  0  0  0  0  0  0  0  0  0  0
    9.3986   -0.0025   -5.3284 C   0  0  0  0  0  0  0  0  0  0  0  0
    8.0042    0.0006   -5.2014 C   0  0  0  0  0  0  0  0  0  0  0  0
    7.4036   -0.0003   -3.9353 C   0  0  0  0  0  0  0  0  0  0  0  0
    6.9781    0.0056   -6.6042 Cl  0  0  0  0  0  0  0  0  0  0  0  0
   10.1667   -0.0014   -6.8878 Cl  0  0  0  0  0  0  0  0  0  0  0  0
    0.0000    0.0000    0.0000 S   0  0  0  0  0  0  0  0  0  0  0  0
    0.0250    0.8831    6.3846 H   0  0  0  0  0  0  0  0  0  0  0  0
    1.3199   -0.0010    7.2465 H   0  0  0  0  0  0  0  0  0  0  0  0
    0.0247   -0.8840    6.3838 H   0  0  0  0  0  0  0  0  0  0  0  0
    2.1978   -0.8829    5.0833 H   0  0  0  0  0  0  0  0  0  0  0  0
    2.1970    0.8834    5.0835 H   0  0  0  0  0  0  0  0  0  0  0  0
    3.5476    0.0003    3.6711 H   0  0  0  0  0  0  0  0  0  0  0  0
    6.3297   -0.0011    3.4171 H   0  0  0  0  0  0  0  0  0  0  0  0
    7.9805   -0.0021    1.2013 H   0  0  0  0  0  0  0  0  0  0  0  0
    5.8445   -0.8901   -1.7944 H   0  0  0  0  0  0  0  0  0  0  0  0
    5.8500    0.8907   -1.7935 H   0  0  0  0  0  0  0  0  0  0  0  0
   10.2092   -0.0106   -2.0046 H   0  0  0  0  0  0  0  0  0  0  0  0
   11.2722   -0.0089   -4.2738 H   0  0  0  0  0  0  0  0  0  0  0  0
    6.3168    0.0021   -3.8851 H   0  0  0  0  0  0  0  0  0  0  0  0
    1.3552   -0.0003   -0.0578 H   0  0  0  0  0  0  0  0  0  0  0  0
  1 28  1  0  0  0  0
  1 26  1  0  0  0  0
  1 27  1  0  0  0  0
  2  1  1  0  0  0  0
  3  2  1  0  0  0  0
  4  3  2  0  0  0  0
  5  4  1  0  0  0  0
  6  7  1  0  0  0  0
  6  5  2  0  0  0  0
  7  3  1  0  0  0  0
  8  7  1  0  0  0  0
  8  9  2  0  0  0  0
  9 31  1  0  0  0  0
 10 11  2  0  0  0  0
 10  9  1  0  0  0  0
 11 32  1  0  0  0  0
 12 11  1  0  0  0  0
 13 14  1  0  0  0  0
 13 12  2  0  0  0  0
 14 10  1  0  0  0  0
 15 13  1  0  0  0  0
 16 15  1  0  0  0  0
 17 16  1  0  0  0  0
 18 17  1  0  0  0  0
 18 36  1  0  0  0  0
 19 18  2  0  0  0  0
 20 21  2  0  0  0  0
 20 19  1  0  0  0  0
 21 22  1  0  0  0  0
 22 38  1  0  0  0  0
 22 17  2  0  0  0  0
 23 21  1  0  0  0  0
 24 20  1  0  0  0  0
 25  6  1  0  0  0  0
 29  2  1  0  0  0  0
 30  2  1  0  0  0  0
 33 12  1  0  0  0  0
 34 15  1  0  0  0  0
 35 15  1  0  0  0  0
 37 19  1  0  0  0  0
 39 25  1  0  0  0  0
M  END
