276883851.xyz
 OpenBabel08132112093D
SCc1cc(cs1)Cl
 13 13  0  0  0  0  0  0  0  0999 V2000
    0.0000    0.0000    0.0000 S   0  0  0  0  0  0  0  0  0  0  0  0
    0.0000    0.0000    1.8423 C   0  0  0  0  0  0  0  0  0  0  0  0
    1.3556    0.0000    2.4695 C   0  0  0  0  0  0  0  0  0  0  0  0
    1.8333    0.8643    3.4244 C   0  0  0  0  0  0  0  0  0  0  0  0
    3.1706    0.5497    3.8215 C   0  0  0  0  0  0  0  0  0  0  0  0
    3.6954   -0.5353    3.1697 C   0  0  0  0  0  0  0  0  0  0  0  0
    2.5561   -1.1919    2.0425 S   0  0  0  0  0  0  0  0  0  0  0  0
    4.0371    1.4734    5.0115 Cl  0  0  0  0  0  0  0  0  0  0  0  0
    0.7479    1.1187   -0.1427 H   0  0  0  0  0  0  0  0  0  0  0  0
   -0.5754    0.8567    2.2217 H   0  0  0  0  0  0  0  0  0  0  0  0
   -0.5621   -0.9113    2.1024 H   0  0  0  0  0  0  0  0  0  0  0  0
    1.2604    1.6930    3.8405 H   0  0  0  0  0  0  0  0  0  0  0  0
    4.6878   -0.9651    3.2846 H   0  0  0  0  0  0  0  0  0  0  0  0
  1  2  1  0  0  0  0
  2 11  1  0  0  0  0
  2 10  1  0  0  0  0
  2  3  1  0  0  0  0
  3  4  2  0  0  0  0
  4  5  1  0  0  0  0
  4 12  1  0  0  0  0
  5  8  1  0  0  0  0
  6 13  1  0  0  0  0
  6  5  2  0  0  0  0
  7  3  1  0  0  0  0
  7  6  1  0  0  0  0
  9  1  1  0  0  0  0
M  END
