276846925.xyz
 OpenBabel08132112093D
C=CC(n1c(S)nnc1c1cccc(c1)O)C
 30 31  0  0  1  0  0  0  0  0999 V2000
    4.4936   -1.4085    2.0745 C   0  0  0  0  0  0  0  0  0  0  0  0
    3.2087   -1.1673    1.8098 C   0  0  0  0  0  0  0  0  0  0  0  0
    2.5048    0.1648    1.9371 C   0  0  1  0  0  0  0  0  0  0  0  0
    1.1542    0.0000    2.5113 N   0  0  0  0  0  0  0  0  0  0  0  0
   -0.0000    0.0000    1.7628 C   0  0  0  0  0  0  0  0  0  0  0  0
    0.0000    0.0000    0.0000 S   0  0  0  0  0  0  0  0  0  0  0  0
   -1.0639   -0.0076    2.5278 N   0  0  0  0  0  0  0  0  0  0  0  0
   -0.6257   -0.0103    3.8217 N   0  0  0  0  0  0  0  0  0  0  0  0
    0.6912   -0.0182    3.8248 C   0  0  0  0  0  0  0  0  0  0  0  0
    1.4791   -0.0393    5.0667 C   0  0  0  0  0  0  0  0  0  0  0  0
    0.9647    0.6482    6.1827 C   0  0  0  0  0  0  0  0  0  0  0  0
    1.6596    0.6223    7.3893 C   0  0  0  0  0  0  0  0  0  0  0  0
    2.8634   -0.0781    7.5081 C   0  0  0  0  0  0  0  0  0  0  0  0
    3.3688   -0.7745    6.4031 C   0  0  0  0  0  0  0  0  0  0  0  0
    2.6733   -0.7605    5.1882 C   0  0  0  0  0  0  0  0  0  0  0  0
    4.5264   -1.4856    6.4495 O   0  0  0  0  0  0  0  0  0  0  0  0
    3.2948    1.2881    2.6045 C   0  0  0  0  0  0  0  0  0  0  0  0
    5.1644   -0.6406    2.4679 H   0  0  0  0  0  0  0  0  0  0  0  0
    4.9221   -2.4010    1.9158 H   0  0  0  0  0  0  0  0  0  0  0  0
    2.5724   -1.9722    1.4243 H   0  0  0  0  0  0  0  0  0  0  0  0
    2.3045    0.4984    0.9038 H   0  0  0  0  0  0  0  0  0  0  0  0
   -1.3421    0.1560   -0.0483 H   0  0  0  0  0  0  0  0  0  0  0  0
    0.0230    1.1871    6.0823 H   0  0  0  0  0  0  0  0  0  0  0  0
    1.2642    1.1588    8.2550 H   0  0  0  0  0  0  0  0  0  0  0  0
    3.4079   -0.0897    8.4572 H   0  0  0  0  0  0  0  0  0  0  0  0
    3.0799   -1.3344    4.3578 H   0  0  0  0  0  0  0  0  0  0  0  0
    4.8930   -1.4432    7.3422 H   0  0  0  0  0  0  0  0  0  0  0  0
    3.6160    1.0270    3.6204 H   0  0  0  0  0  0  0  0  0  0  0  0
    2.6789    2.1970    2.6570 H   0  0  0  0  0  0  0  0  0  0  0  0
    4.1879    1.5136    2.0042 H   0  0  0  0  0  0  0  0  0  0  0  0
  1 18  1  0  0  0  0
  2  3  1  0  0  0  0
  2  1  2  0  0  0  0
  3 21  1  6  0  0  0
  3  4  1  0  0  0  0
  3 17  1  0  0  0  0
  4  9  1  0  0  0  0
  5  4  1  0  0  0  0
  5  7  2  0  0  0  0
  6  5  1  0  0  0  0
  7  8  1  0  0  0  0
  8  9  2  0  0  0  0
  9 10  1  0  0  0  0
 10 15  2  0  0  0  0
 10 11  1  0  0  0  0
 11 12  2  0  0  0  0
 12 13  1  0  0  0  0
 12 24  1  0  0  0  0
 13 25  1  0  0  0  0
 14 16  1  0  0  0  0
 14 13  2  0  0  0  0
 15 14  1  0  0  0  0
 16 27  1  0  0  0  0
 17 29  1  0  0  0  0
 17 28  1  0  0  0  0
 19  1  1  0  0  0  0
 20  2  1  0  0  0  0
 22  6  1  0  0  0  0
 23 11  1  0  0  0  0
 26 15  1  0  0  0  0
 30 17  1  0  0  0  0
M  END
