276919842.xyz
 OpenBabel08132112093D
Nc1nc(S)[nH]c(=O)c1C#N
 15 15  0  0  1  0  0  0  0  0999 V2000
   -2.2440    0.0004    4.4258 N   0  0  0  0  0  0  0  0  0  0  0  0
   -1.0565    0.0001    3.7930 C   0  0  0  0  0  0  0  0  0  0  0  0
   -1.1215   -0.0001    2.4266 N   0  0  0  0  0  0  0  0  0  0  0  0
    0.0000   -0.0000    1.7682 C   0  0  0  0  0  0  0  0  0  0  0  0
    0.0000    0.0000    0.0000 S   0  0  0  0  0  0  0  0  0  0  0  0
    1.2188   -0.0000    2.3557 N   0  0  0  0  0  0  0  0  0  0  0  0
    1.4185    0.0013    3.7706 C   0  0  0  0  0  0  0  0  0  0  0  0
    2.5472    0.0024    4.2131 O   0  0  0  0  0  0  0  0  0  0  0  0
    0.1646    0.0009    4.4928 C   0  0  1  0  0  0  0  0  0  0  0  0
    0.1576    0.0015    5.9119 C   0  0  0  0  0  0  0  0  0  0  0  0
    0.0487    0.0021    7.0703 N   0  0  0  0  0  0  0  0  0  0  0  0
   -3.0894   -0.0014    3.8714 H   0  0  0  0  0  0  0  0  0  0  0  0
   -2.2943   -0.0006    5.4368 H   0  0  0  0  0  0  0  0  0  0  0  0
   -1.3486   -0.0014   -0.0743 H   0  0  0  0  0  0  0  0  0  0  0  0
    2.0736   -0.0003    1.8049 H   0  0  0  0  0  0  0  0  0  0  0  0
  1 13  1  0  0  0  0
  2  1  1  0  0  0  0
  2  9  1  0  0  0  0
  3  2  2  0  0  0  0
  4  6  1  0  0  0  0
  4  3  2  0  0  0  0
  5  4  1  0  0  0  0
  6  7  1  0  0  0  0
  7  8  2  0  0  0  0
  7  9  1  0  0  0  0
  9 10  1  6  0  0  0
 10 11  3  0  0  0  0
 12  1  1  0  0  0  0
 14  5  1  0  0  0  0
 15  6  1  0  0  0  0
M  RAD  1   9   2
M  END
