277309297.xyz
 OpenBabel08132112093D
Fc1cc(S)c2c(c1)sc(n2)C(C)C
 24 25  0  0  1  0  0  0  0  0999 V2000
   -2.3626    0.0005    4.5197 F   0  0  0  0  0  0  0  0  0  0  0  0
   -1.1859    0.0001    3.8773 C   0  0  0  0  0  0  0  0  0  0  0  0
   -1.2022    0.0004    2.4772 C   0  0  0  0  0  0  0  0  0  0  0  0
   -0.0000    0.0000    1.7655 C   0  0  0  0  0  0  0  0  0  0  0  0
    0.0000    0.0000    0.0000 S   0  0  0  0  0  0  0  0  0  0  0  0
    1.2125   -0.0000    2.4936 C   0  0  0  0  0  0  0  0  0  0  0  0
    1.1817    0.0001    3.9095 C   0  0  1  0  0  0  0  0  0  0  0  0
   -0.0173   -0.0005    4.6300 C   0  0  0  0  0  0  0  0  0  0  0  0
    2.8227   -0.0038    4.5117 S   0  0  0  0  0  0  0  0  0  0  0  0
    3.4087   -0.0027    2.8266 C   0  0  0  0  0  0  0  0  0  0  0  0
    2.4744   -0.0009    1.9338 N   0  0  0  0  0  0  0  0  0  0  0  0
    4.8838    0.0208    2.5319 C   0  0  0  0  0  0  0  0  0  0  0  0
    5.5085    1.3659    2.9363 C   0  0  0  0  0  0  0  0  0  0  0  0
    5.6165   -1.1626    3.1800 C   0  0  0  0  0  0  0  0  0  0  0  0
   -2.1652    0.0008    1.9645 H   0  0  0  0  0  0  0  0  0  0  0  0
    1.3517   -0.0006   -0.0916 H   0  0  0  0  0  0  0  0  0  0  0  0
   -0.0621   -0.0009    5.7188 H   0  0  0  0  0  0  0  0  0  0  0  0
    4.9442   -0.0791    1.4365 H   0  0  0  0  0  0  0  0  0  0  0  0
    6.5707    1.3966    2.6473 H   0  0  0  0  0  0  0  0  0  0  0  0
    5.4491    1.5178    4.0261 H   0  0  0  0  0  0  0  0  0  0  0  0
    4.9927    2.2062    2.4480 H   0  0  0  0  0  0  0  0  0  0  0  0
    5.5714   -1.1047    4.2799 H   0  0  0  0  0  0  0  0  0  0  0  0
    6.6782   -1.1604    2.8884 H   0  0  0  0  0  0  0  0  0  0  0  0
    5.1761   -2.1233    2.8736 H   0  0  0  0  0  0  0  0  0  0  0  0
  2  1  1  0  0  0  0
  2  8  2  0  0  0  0
  3  2  1  0  0  0  0
  4  3  2  0  0  0  0
  4  6  1  0  0  0  0
  5  4  1  0  0  0  0
  7  6  1  6  0  0  0
  7  9  1  0  0  0  0
  7  8  1  0  0  0  0
  8 17  1  0  0  0  0
 10  9  1  0  0  0  0
 11  6  2  0  0  0  0
 11 10  2  0  0  0  0
 12 10  1  0  0  0  0
 12 13  1  0  0  0  0
 12 14  1  0  0  0  0
 13 20  1  0  0  0  0
 14 22  1  0  0  0  0
 15  3  1  0  0  0  0
 16  5  1  0  0  0  0
 18 12  1  0  0  0  0
 19 13  1  0  0  0  0
 21 13  1  0  0  0  0
 23 14  1  0  0  0  0
 24 14  1  0  0  0  0
M  RAD  1   7   2
M  END
