277309236.xyz
 OpenBabel08132112093D
Brc1cc(S)c2c(c1)sc(n2)C(F)F
 18 19  0  0  1  0  0  0  0  0999 V2000
    2.8809   -0.0004    4.7812 Br  0  0  0  0  0  0  0  0  0  0  0  0
    1.2058   -0.0001    3.8763 C   0  0  0  0  0  0  0  0  0  0  0  0
    1.2051   -0.0000    2.4707 C   0  0  0  0  0  0  0  0  0  0  0  0
    0.0000    0.0000    1.7643 C   0  0  0  0  0  0  0  0  0  0  0  0
    0.0000    0.0000    0.0000 S   0  0  0  0  0  0  0  0  0  0  0  0
   -1.2081   -0.0000    2.5020 C   0  0  0  0  0  0  0  0  0  0  0  0
   -1.1685   -0.0000    3.9194 C   0  0  2  0  0  0  0  0  0  0  0  0
    0.0350   -0.0000    4.6322 C   0  0  0  0  0  0  0  0  0  0  0  0
   -2.8025   -0.0002    4.5425 S   0  0  0  0  0  0  0  0  0  0  0  0
   -3.3818   -0.0002    2.8766 C   0  0  0  0  0  0  0  0  0  0  0  0
   -2.4726   -0.0002    1.9572 N   0  0  0  0  0  0  0  0  0  0  0  0
   -4.8521   -0.0006    2.5718 C   0  0  0  0  0  0  0  0  0  0  0  0
   -5.4469   -1.0938    3.1133 F   0  0  0  0  0  0  0  0  0  0  0  0
   -5.4475    1.0922    3.1136 F   0  0  0  0  0  0  0  0  0  0  0  0
    2.1538    0.0000    1.9332 H   0  0  0  0  0  0  0  0  0  0  0  0
   -1.3500   -0.0001   -0.1026 H   0  0  0  0  0  0  0  0  0  0  0  0
    0.0653   -0.0001    5.7210 H   0  0  0  0  0  0  0  0  0  0  0  0
   -5.0055   -0.0004    1.4803 H   0  0  0  0  0  0  0  0  0  0  0  0
  2  8  2  0  0  0  0
  2  1  1  0  0  0  0
  3  2  1  0  0  0  0
  4  3  2  0  0  0  0
  4  6  1  0  0  0  0
  5  4  1  0  0  0  0
  7  6  1  6  0  0  0
  7  9  1  0  0  0  0
  7  8  1  0  0  0  0
  8 17  1  0  0  0  0
 10  9  1  0  0  0  0
 11  6  2  0  0  0  0
 11 10  2  0  0  0  0
 12 10  1  0  0  0  0
 12 13  1  0  0  0  0
 12 14  1  0  0  0  0
 15  3  1  0  0  0  0
 16  5  1  0  0  0  0
 18 12  1  0  0  0  0
M  RAD  1   7   2
M  END
