2854588.xyz
 OpenBabel08132112093D
Clc1c2ccccc2sc1c1nnc(n1c1ccccc1)S
 32 35  0  0  0  0  0  0  0  0999 V2000
   -1.4220   -2.5632    5.5188 Cl  0  0  0  0  0  0  0  0  0  0  0  0
   -1.8669   -0.9150    5.8225 C   0  0  0  0  0  0  0  0  0  0  0  0
   -2.7520   -0.5391    6.8946 C   0  0  0  0  0  0  0  0  0  0  0  0
   -3.3615   -1.3410    7.8765 C   0  0  0  0  0  0  0  0  0  0  0  0
   -4.1926   -0.7456    8.8165 C   0  0  0  0  0  0  0  0  0  0  0  0
   -4.4269    0.6445    8.7940 C   0  0  0  0  0  0  0  0  0  0  0  0
   -3.8345    1.4560    7.8315 C   0  0  0  0  0  0  0  0  0  0  0  0
   -2.9978    0.8579    6.8797 C   0  0  0  0  0  0  0  0  0  0  0  0
   -2.1417    1.6552    5.5784 S   0  0  0  0  0  0  0  0  0  0  0  0
   -1.4530    0.1277    5.0400 C   0  0  0  0  0  0  0  0  0  0  0  0
   -0.6012    0.0735    3.8529 C   0  0  0  0  0  0  0  0  0  0  0  0
    0.7090    0.0594    3.8073 N   0  0  0  0  0  0  0  0  0  0  0  0
    1.0882   -0.0000    2.4931 N   0  0  0  0  0  0  0  0  0  0  0  0
   -0.0000   -0.0000    1.7602 C   0  0  0  0  0  0  0  0  0  0  0  0
   -1.1193    0.0527    2.5642 N   0  0  0  0  0  0  0  0  0  0  0  0
   -2.4942    0.0603    2.1932 C   0  0  0  0  0  0  0  0  0  0  0  0
   -3.3277   -0.9813    2.6157 C   0  0  0  0  0  0  0  0  0  0  0  0
   -4.6821   -0.9541    2.2780 C   0  0  0  0  0  0  0  0  0  0  0  0
   -5.1960    0.0960    1.5118 C   0  0  0  0  0  0  0  0  0  0  0  0
   -4.3539    1.1275    1.0848 C   0  0  0  0  0  0  0  0  0  0  0  0
   -3.0019    1.1184    1.4306 C   0  0  0  0  0  0  0  0  0  0  0  0
    0.0000    0.0000    0.0000 S   0  0  0  0  0  0  0  0  0  0  0  0
   -3.1711   -2.4158    7.8850 H   0  0  0  0  0  0  0  0  0  0  0  0
   -4.6697   -1.3591    9.5837 H   0  0  0  0  0  0  0  0  0  0  0  0
   -5.0830    1.0929    9.5435 H   0  0  0  0  0  0  0  0  0  0  0  0
   -4.0167    2.5324    7.8162 H   0  0  0  0  0  0  0  0  0  0  0  0
   -2.9118   -1.7994    3.2049 H   0  0  0  0  0  0  0  0  0  0  0  0
   -5.3367   -1.7616    2.6126 H   0  0  0  0  0  0  0  0  0  0  0  0
   -6.2555    0.1112    1.2465 H   0  0  0  0  0  0  0  0  0  0  0  0
   -4.7532    1.9509    0.4887 H   0  0  0  0  0  0  0  0  0  0  0  0
   -2.3347    1.9220    1.1155 H   0  0  0  0  0  0  0  0  0  0  0  0
   -1.2233   -0.5644   -0.1281 H   0  0  0  0  0  0  0  0  0  0  0  0
  1  2  1  0  0  0  0
  2  3  1  0  0  0  0
  3  4  1  0  0  0  0
  4 23  1  0  0  0  0
  4  5  2  0  0  0  0
  5 24  1  0  0  0  0
  6  5  1  0  0  0  0
  6 25  1  0  0  0  0
  7  6  2  0  0  0  0
  8  3  2  0  0  0  0
  8  7  1  0  0  0  0
  9  8  1  0  0  0  0
 10  9  1  0  0  0  0
 10  2  2  0  0  0  0
 11 10  1  0  0  0  0
 12 11  2  0  0  0  0
 13 12  1  0  0  0  0
 14 13  2  0  0  0  0
 14 15  1  0  0  0  0
 15 11  1  0  0  0  0
 16 15  1  0  0  0  0
 16 17  2  0  0  0  0
 17 27  1  0  0  0  0
 18 28  1  0  0  0  0
 18 17  1  0  0  0  0
 19 18  2  0  0  0  0
 20 21  2  0  0  0  0
 20 19  1  0  0  0  0
 21 16  1  0  0  0  0
 22 14  1  0  0  0  0
 26  7  1  0  0  0  0
 29 19  1  0  0  0  0
 30 20  1  0  0  0  0
 31 21  1  0  0  0  0
 32 22  1  0  0  0  0
M  END
