2855995.xyz
 OpenBabel08132112093D
Sc1nnc(n1c1ccccc1F)c1cccnc1
 28 30  0  0  1  0  0  0  0  0999 V2000
    0.0000    0.0000    0.0000 S   0  0  0  0  0  0  0  0  0  0  0  0
    0.0000    0.0000    1.7577 C   0  0  0  0  0  0  0  0  0  0  0  0
   -1.0441    0.0174    2.5481 N   0  0  0  0  0  0  0  0  0  0  0  0
   -0.5835    0.0377    3.8373 N   0  0  0  0  0  0  0  0  0  0  0  0
    0.7293    0.0321    3.8175 C   0  0  0  0  0  0  0  0  0  0  0  0
    1.1662    0.0000    2.4949 N   0  0  0  0  0  0  0  0  0  0  0  0
    2.4824    0.1261    1.9817 C   0  0  0  0  0  0  0  0  0  0  0  0
    3.0629   -0.8904    1.2158 C   0  0  0  0  0  0  0  0  0  0  0  0
    4.3560   -0.7371    0.7128 C   0  0  0  0  0  0  0  0  0  0  0  0
    5.0773    0.4295    0.9854 C   0  0  0  0  0  0  0  0  0  0  0  0
    4.5086    1.4505    1.7512 C   0  0  0  0  0  0  0  0  0  0  0  0
    3.2143    1.2939    2.2341 C   0  0  0  0  0  0  0  0  0  0  0  0
    2.6550    2.2592    2.9649 F   0  0  0  0  0  0  0  0  0  0  0  0
    1.5890    0.0578    5.0014 C   0  0  2  0  0  0  0  0  0  0  0  0
    2.8788   -0.4929    5.0424 C   0  0  0  0  0  0  0  0  0  0  0  0
    3.6028   -0.4208    6.2315 C   0  0  0  0  0  0  0  0  0  0  0  0
    3.0108    0.1864    7.3418 C   0  0  0  0  0  0  0  0  0  0  0  0
    1.7779    0.7018    7.3214 N   0  0  0  0  0  0  0  0  0  0  0  0
    1.0901    0.6400    6.1850 C   0  0  0  0  0  0  0  0  0  0  0  0
   -1.3508    0.0493   -0.0453 H   0  0  0  0  0  0  0  0  0  0  0  0
    2.4862   -1.7966    1.0237 H   0  0  0  0  0  0  0  0  0  0  0  0
    4.8024   -1.5323    0.1131 H   0  0  0  0  0  0  0  0  0  0  0  0
    6.0918    0.5492    0.5996 H   0  0  0  0  0  0  0  0  0  0  0  0
    5.0470    2.3722    1.9775 H   0  0  0  0  0  0  0  0  0  0  0  0
    3.3074   -0.9856    4.1691 H   0  0  0  0  0  0  0  0  0  0  0  0
    4.6086   -0.8401    6.3008 H   0  0  0  0  0  0  0  0  0  0  0  0
    3.5558    0.2552    8.2903 H   0  0  0  0  0  0  0  0  0  0  0  0
    0.0824    1.0665    6.1774 H   0  0  0  0  0  0  0  0  0  0  0  0
  1  2  1  0  0  0  0
  2  6  1  0  0  0  0
  2  3  2  0  0  0  0
  3  4  1  0  0  0  0
  5  4  2  0  0  0  0
  6  5  1  0  0  0  0
  7 12  1  0  0  0  0
  7  6  1  0  0  0  0
  8  7  2  0  0  0  0
  9 10  2  0  0  0  0
  9  8  1  0  0  0  0
 10 11  1  0  0  0  0
 11 24  1  0  0  0  0
 11 12  2  0  0  0  0
 12 13  1  0  0  0  0
 14  5  1  1  0  0  0
 14 15  1  0  0  0  0
 14 19  1  0  0  0  0
 15 16  2  0  0  0  0
 16 26  1  0  0  0  0
 16 17  1  0  0  0  0
 17 27  1  0  0  0  0
 18 17  2  0  0  0  0
 19 18  2  0  0  0  0
 20  1  1  0  0  0  0
 21  8  1  0  0  0  0
 22  9  1  0  0  0  0
 23 10  1  0  0  0  0
 25 15  1  0  0  0  0
 28 19  1  0  0  0  0
M  RAD  1  14   2
M  END
