2858962.xyz
 OpenBabel08132112093D
OC(=O)CCSc1nnc(s1)S
 18 18  0  0  0  0  0  0  0  0999 V2000
   -1.4724    0.0056   10.3240 O   0  0  0  0  0  0  0  0  0  0  0  0
   -1.6494    0.0048    8.9835 C   0  0  0  0  0  0  0  0  0  0  0  0
   -2.7499    0.0085    8.5099 O   0  0  0  0  0  0  0  0  0  0  0  0
   -0.3635    0.0029    8.1644 C   0  0  0  0  0  0  0  0  0  0  0  0
   -0.6504    0.0029    6.6700 C   0  0  0  0  0  0  0  0  0  0  0  0
    0.9493    0.0011    5.7744 S   0  0  0  0  0  0  0  0  0  0  0  0
    0.3469    0.0009    4.1308 C   0  0  0  0  0  0  0  0  0  0  0  0
   -0.9081    0.0020    3.7886 N   0  0  0  0  0  0  0  0  0  0  0  0
   -1.1022    0.0014    2.4423 N   0  0  0  0  0  0  0  0  0  0  0  0
   -0.0000    0.0000    1.7612 C   0  0  0  0  0  0  0  0  0  0  0  0
    1.4565    0.0000    2.7609 S   0  0  0  0  0  0  0  0  0  0  0  0
    0.0000    0.0000    0.0000 S   0  0  0  0  0  0  0  0  0  0  0  0
   -0.5307    0.0035   10.5476 H   0  0  0  0  0  0  0  0  0  0  0  0
    0.2350    0.8865    8.4506 H   0  0  0  0  0  0  0  0  0  0  0  0
    0.2327   -0.8821    8.4511 H   0  0  0  0  0  0  0  0  0  0  0  0
   -1.2295   -0.8797    6.3699 H   0  0  0  0  0  0  0  0  0  0  0  0
   -1.2278    0.8865    6.3696 H   0  0  0  0  0  0  0  0  0  0  0  0
    1.3455   -0.0054   -0.1316 H   0  0  0  0  0  0  0  0  0  0  0  0
  1 13  1  0  0  0  0
  2  1  1  0  0  0  0
  3  2  2  0  0  0  0
  4 14  1  0  0  0  0
  4 15  1  0  0  0  0
  4  2  1  0  0  0  0
  5  4  1  0  0  0  0
  6  5  1  0  0  0  0
  7  6  1  0  0  0  0
  8  7  2  0  0  0  0
  9  8  1  0  0  0  0
 10  9  2  0  0  0  0
 10 11  1  0  0  0  0
 11  7  1  0  0  0  0
 12 10  1  0  0  0  0
 16  5  1  0  0  0  0
 17  5  1  0  0  0  0
 18 12  1  0  0  0  0
M  END
