301152485.xyz
 OpenBabel08132112093D
O=C(NCc1nnc(n1C1CC1)S)C=Cc1ccc(o1)C1CC1C
 44 47  0  0  1  0  0  0  0  0999 V2000
   -2.4761    2.5315    5.1083 O   0  0  0  0  0  0  0  0  0  0  0  0
   -1.5975    2.2146    5.9033 C   0  0  0  0  0  0  0  0  0  0  0  0
   -1.1421    0.9190    6.0138 N   0  0  0  0  0  0  0  0  0  0  0  0
   -1.5694   -0.0718    5.0449 C   0  0  0  0  0  0  0  0  0  0  0  0
   -0.7172   -0.0438    3.8076 C   0  0  0  0  0  0  0  0  0  0  0  0
    0.5915   -0.0276    3.8358 N   0  0  0  0  0  0  0  0  0  0  0  0
    1.0525    0.0000    2.5413 N   0  0  0  0  0  0  0  0  0  0  0  0
   -0.0000    0.0000    1.7602 C   0  0  0  0  0  0  0  0  0  0  0  0
   -1.1617   -0.0172    2.4994 N   0  0  0  0  0  0  0  0  0  0  0  0
   -2.5014   -0.0675    1.9811 C   0  0  0  0  0  0  0  0  0  0  0  0
   -3.5270    0.9280    2.4599 C   0  0  0  0  0  0  0  0  0  0  0  0
   -2.9633    1.0467    1.0739 C   0  0  0  0  0  0  0  0  0  0  0  0
    0.0000    0.0000    0.0000 S   0  0  0  0  0  0  0  0  0  0  0  0
   -0.9994    3.2104    6.8209 C   0  0  0  0  0  0  0  0  0  0  0  0
   -0.3517    2.9189    7.9706 C   0  0  0  0  0  0  0  0  0  0  0  0
    0.2035    3.8794    8.8820 C   0  0  0  0  0  0  0  0  0  0  0  0
    0.8649    3.7336   10.0834 C   0  0  0  0  0  0  0  0  0  0  0  0
    1.1787    5.0485   10.5386 C   0  0  0  0  0  0  0  0  0  0  0  0
    0.6941    5.9176    9.5892 C   0  0  0  0  0  0  0  0  0  0  0  0
    0.1060    5.2101    8.5861 O   0  0  0  0  0  0  0  0  0  0  0  0
    0.7085    7.3796    9.4401 C   0  0  1  0  0  0  0  0  0  0  0  0
    1.6646    8.2219   10.2482 C   0  0  0  0  0  0  0  0  0  0  0  0
    1.8842    8.0835    8.7676 C   0  0  1  0  0  0  0  0  0  0  0  0
    3.0522    7.3001    8.2179 C   0  0  0  0  0  0  0  0  0  0  0  0
   -0.1937    0.7986    6.3539 H   0  0  0  0  0  0  0  0  0  0  0  0
   -1.5035   -1.0690    5.5090 H   0  0  0  0  0  0  0  0  0  0  0  0
   -2.6192    0.1152    4.7969 H   0  0  0  0  0  0  0  0  0  0  0  0
   -2.8394   -1.0827    1.7460 H   0  0  0  0  0  0  0  0  0  0  0  0
   -4.5476    0.5546    2.5784 H   0  0  0  0  0  0  0  0  0  0  0  0
   -3.2129    1.6557    3.2139 H   0  0  0  0  0  0  0  0  0  0  0  0
   -2.2553    1.8570    0.8845 H   0  0  0  0  0  0  0  0  0  0  0  0
   -3.5780    0.7679    0.2147 H   0  0  0  0  0  0  0  0  0  0  0  0
    1.3511   -0.0361   -0.0469 H   0  0  0  0  0  0  0  0  0  0  0  0
   -1.1759    4.2485    6.5328 H   0  0  0  0  0  0  0  0  0  0  0  0
   -0.2306    1.8777    8.2843 H   0  0  0  0  0  0  0  0  0  0  0  0
    1.0896    2.7898   10.5756 H   0  0  0  0  0  0  0  0  0  0  0  0
    1.6897    5.3259   11.4568 H   0  0  0  0  0  0  0  0  0  0  0  0
   -0.2766    7.8088    9.2266 H   0  0  0  0  0  0  0  0  0  0  0  0
    2.3627    7.6986   10.9080 H   0  0  0  0  0  0  0  0  0  0  0  0
    1.2951    9.1692   10.6480 H   0  0  0  0  0  0  0  0  0  0  0  0
    1.5920    8.9481    8.1620 H   0  0  0  0  0  0  0  0  0  0  0  0
    2.8294    6.9117    7.2111 H   0  0  0  0  0  0  0  0  0  0  0  0
    3.9509    7.9339    8.1470 H   0  0  0  0  0  0  0  0  0  0  0  0
    3.2951    6.4400    8.8598 H   0  0  0  0  0  0  0  0  0  0  0  0
  1  2  2  0  0  0  0
  2  3  1  0  0  0  0
  2 14  1  0  0  0  0
  3 25  1  0  0  0  0
  4 26  1  0  0  0  0
  4  3  1  0  0  0  0
  5  6  2  0  0  0  0
  5  4  1  0  0  0  0
  7  6  1  0  0  0  0
  8  9  1  0  0  0  0
  8  7  2  0  0  0  0
  9  5  1  0  0  0  0
 10 11  1  0  0  0  0
 10  9  1  0  0  0  0
 11 29  1  0  0  0  0
 11 30  1  0  0  0  0
 12 10  1  0  0  0  0
 12 11  1  0  0  0  0
 13  8  1  0  0  0  0
 14 15  2  0  0  0  0
 15 35  1  0  0  0  0
 15 16  1  0  0  0  0
 16 17  2  0  0  0  0
 17 18  1  0  0  0  0
 17 36  1  0  0  0  0
 18 37  1  0  0  0  0
 19 18  2  0  0  0  0
 20 16  1  0  0  0  0
 20 19  1  0  0  0  0
 21 23  1  6  0  0  0
 21 19  1  0  0  0  0
 21 22  1  0  0  0  0
 22 40  1  0  0  0  0
 22 39  1  0  0  0  0
 23 41  1  6  0  0  0
 23 22  1  0  0  0  0
 24 23  1  0  0  0  0
 24 44  1  0  0  0  0
 27  4  1  0  0  0  0
 28 10  1  0  0  0  0
 31 12  1  0  0  0  0
 32 12  1  0  0  0  0
 33 13  1  0  0  0  0
 34 14  1  0  0  0  0
 38 21  1  0  0  0  0
 42 24  1  0  0  0  0
 43 24  1  0  0  0  0
M  END
