30177229.xyz
 OpenBabel08132112093D
COc1ccc(c(c1N)S)F
 19 19  0  0  0  0  0  0  0  0999 V2000
    2.5489   -0.0481    5.8682 C   0  0  0  0  0  0  0  0  0  0  0  0
    2.4522   -0.0310    4.4648 O   0  0  0  0  0  0  0  0  0  0  0  0
    1.2104   -0.0545    3.8924 C   0  0  0  0  0  0  0  0  0  0  0  0
    0.0074   -0.1036    4.5890 C   0  0  0  0  0  0  0  0  0  0  0  0
   -1.2146   -0.0985    3.8966 C   0  0  0  0  0  0  0  0  0  0  0  0
   -1.1966   -0.0567    2.5142 C   0  0  0  0  0  0  0  0  0  0  0  0
    0.0000    0.0000    1.7840 C   0  0  0  0  0  0  0  0  0  0  0  0
    1.2290    0.0000    2.4716 C   0  0  0  0  0  0  0  0  0  0  0  0
    2.4404    0.0165    1.8173 N   0  0  0  0  0  0  0  0  0  0  0  0
    0.0000    0.0000    0.0000 S   0  0  0  0  0  0  0  0  0  0  0  0
   -2.3579   -0.0391    1.8358 F   0  0  0  0  0  0  0  0  0  0  0  0
    2.0491    0.8263    6.3239 H   0  0  0  0  0  0  0  0  0  0  0  0
    3.6190   -0.0164    6.1129 H   0  0  0  0  0  0  0  0  0  0  0  0
    2.1102   -0.9676    6.2963 H   0  0  0  0  0  0  0  0  0  0  0  0
   -0.0002   -0.1400    5.6777 H   0  0  0  0  0  0  0  0  0  0  0  0
   -2.1692   -0.1310    4.4224 H   0  0  0  0  0  0  0  0  0  0  0  0
    3.2322    0.2756    2.3939 H   0  0  0  0  0  0  0  0  0  0  0  0
    2.4292    0.4052    0.8794 H   0  0  0  0  0  0  0  0  0  0  0  0
   -1.0183    0.8774   -0.1491 H   0  0  0  0  0  0  0  0  0  0  0  0
  1 13  1  0  0  0  0
  1 14  1  0  0  0  0
  1 12  1  0  0  0  0
  2  1  1  0  0  0  0
  3  2  1  0  0  0  0
  3  4  2  0  0  0  0
  4 15  1  0  0  0  0
  5 16  1  0  0  0  0
  5  4  1  0  0  0  0
  6  5  2  0  0  0  0
  7  8  2  0  0  0  0
  7  6  1  0  0  0  0
  8  3  1  0  0  0  0
  9 17  1  0  0  0  0
  9  8  1  0  0  0  0
 10  7  1  0  0  0  0
 11  6  1  0  0  0  0
 18  9  1  0  0  0  0
 19 10  1  0  0  0  0
M  END
