30319089.xyz
 OpenBabel08132112093D
Nn1c(CCN2CCOCC2)nnc1S
 30 31  0  0  0  0  0  0  0  0999 V2000
    2.4389    0.0259    1.9055 N   0  0  0  0  0  0  0  0  0  0  0  0
    1.1736    0.0000    2.4695 N   0  0  0  0  0  0  0  0  0  0  0  0
    0.7813    0.0151    3.7992 C   0  0  0  0  0  0  0  0  0  0  0  0
    1.7353   -0.0248    4.9411 C   0  0  0  0  0  0  0  0  0  0  0  0
    2.2576   -1.4437    5.2233 C   0  0  0  0  0  0  0  0  0  0  0  0
    3.2889   -1.4587    6.2403 N   0  0  0  0  0  0  0  0  0  0  0  0
    2.8030   -1.0388    7.5565 C   0  0  0  0  0  0  0  0  0  0  0  0
    3.7366   -1.5308    8.6525 C   0  0  0  0  0  0  0  0  0  0  0  0
    3.8029   -2.9443    8.7095 O   0  0  0  0  0  0  0  0  0  0  0  0
    3.6506   -3.5957    7.4587 C   0  0  0  0  0  0  0  0  0  0  0  0
    4.0768   -2.6954    6.3031 C   0  0  0  0  0  0  0  0  0  0  0  0
   -0.5248    0.0140    3.8597 N   0  0  0  0  0  0  0  0  0  0  0  0
   -1.0239    0.0057    2.5703 N   0  0  0  0  0  0  0  0  0  0  0  0
    0.0000    0.0000    1.7556 C   0  0  0  0  0  0  0  0  0  0  0  0
    0.0000    0.0000    0.0000 S   0  0  0  0  0  0  0  0  0  0  0  0
    2.9698   -0.7999    2.1807 H   0  0  0  0  0  0  0  0  0  0  0  0
    2.9416    0.8643    2.1967 H   0  0  0  0  0  0  0  0  0  0  0  0
    1.2029    0.3704    5.8166 H   0  0  0  0  0  0  0  0  0  0  0  0
    2.6019    0.6313    4.7523 H   0  0  0  0  0  0  0  0  0  0  0  0
    2.6892   -1.8537    4.2948 H   0  0  0  0  0  0  0  0  0  0  0  0
    1.3846   -2.0884    5.4761 H   0  0  0  0  0  0  0  0  0  0  0  0
    1.7837   -1.4368    7.7592 H   0  0  0  0  0  0  0  0  0  0  0  0
    2.7301    0.0609    7.6109 H   0  0  0  0  0  0  0  0  0  0  0  0
    4.7444   -1.0966    8.4960 H   0  0  0  0  0  0  0  0  0  0  0  0
    3.3776   -1.1828    9.6333 H   0  0  0  0  0  0  0  0  0  0  0  0
    4.2653   -4.5107    7.4843 H   0  0  0  0  0  0  0  0  0  0  0  0
    2.5970   -3.9098    7.3168 H   0  0  0  0  0  0  0  0  0  0  0  0
    3.9778   -3.2418    5.3528 H   0  0  0  0  0  0  0  0  0  0  0  0
    5.1495   -2.4559    6.4193 H   0  0  0  0  0  0  0  0  0  0  0  0
   -1.3519    0.0011   -0.0463 H   0  0  0  0  0  0  0  0  0  0  0  0
  1 16  1  0  0  0  0
  1 17  1  0  0  0  0
  1  2  1  0  0  0  0
  2  3  1  0  0  0  0
  3 12  2  0  0  0  0
  3  4  1  0  0  0  0
  4  5  1  0  0  0  0
  4 18  1  0  0  0  0
  5 21  1  0  0  0  0
  5  6  1  0  0  0  0
  6 11  1  0  0  0  0
  6  7  1  0  0  0  0
  7 23  1  0  0  0  0
  7 22  1  0  0  0  0
  7  8  1  0  0  0  0
  8  9  1  0  0  0  0
  8 25  1  0  0  0  0
 10 26  1  0  0  0  0
 10  9  1  0  0  0  0
 11 29  1  0  0  0  0
 11 10  1  0  0  0  0
 13 12  1  0  0  0  0
 14  2  1  0  0  0  0
 14 13  2  0  0  0  0
 15 14  1  0  0  0  0
 19  4  1  0  0  0  0
 20  5  1  0  0  0  0
 24  8  1  0  0  0  0
 27 10  1  0  0  0  0
 28 11  1  0  0  0  0
 30 15  1  0  0  0  0
M  END
