303158775.xyz
 OpenBabel08132112093D
COc1ccc(cc1C=Nc1ccccc1c1n[nH]c(nc1=O)S)OC
 42 44  0  0  0  0  0  0  0  0999 V2000
   -1.7575   -3.3465    1.1732 C   0  0  0  0  0  0  0  0  0  0  0  0
   -1.4407   -3.2362    2.5422 O   0  0  0  0  0  0  0  0  0  0  0  0
   -0.1469   -3.3150    2.9378 C   0  0  0  0  0  0  0  0  0  0  0  0
    0.9408   -3.4835    2.0662 C   0  0  0  0  0  0  0  0  0  0  0  0
    2.2406   -3.5039    2.5670 C   0  0  0  0  0  0  0  0  0  0  0  0
    2.4845   -3.3709    3.9431 C   0  0  0  0  0  0  0  0  0  0  0  0
    1.4017   -3.2295    4.8134 C   0  0  0  0  0  0  0  0  0  0  0  0
    0.0898   -3.1693    4.3218 C   0  0  0  0  0  0  0  0  0  0  0  0
   -1.0668   -2.9082    5.2084 C   0  0  0  0  0  0  0  0  0  0  0  0
   -1.1184   -2.1462    6.2298 N   0  0  0  0  0  0  0  0  0  0  0  0
   -0.0966   -1.3151    6.6801 C   0  0  0  0  0  0  0  0  0  0  0  0
    0.2336   -1.4138    8.0466 C   0  0  0  0  0  0  0  0  0  0  0  0
    1.2582   -0.6557    8.6030 C   0  0  0  0  0  0  0  0  0  0  0  0
    1.9648    0.2549    7.8091 C   0  0  0  0  0  0  0  0  0  0  0  0
    1.6254    0.3902    6.4654 C   0  0  0  0  0  0  0  0  0  0  0  0
    0.6009   -0.3709    5.8775 C   0  0  0  0  0  0  0  0  0  0  0  0
    0.3672   -0.2075    4.4266 C   0  0  0  0  0  0  0  0  0  0  0  0
    1.4261   -0.1463    3.6746 N   0  0  0  0  0  0  0  0  0  0  0  0
    1.2363    0.0000    2.3506 N   0  0  0  0  0  0  0  0  0  0  0  0
   -0.0000    0.0000    1.7851 C   0  0  0  0  0  0  0  0  0  0  0  0
   -1.0921   -0.0083    2.4654 N   0  0  0  0  0  0  0  0  0  0  0  0
   -1.0154   -0.0173    3.8644 C   0  0  0  0  0  0  0  0  0  0  0  0
   -1.9865    0.1350    4.5701 O   0  0  0  0  0  0  0  0  0  0  0  0
    0.0000    0.0000    0.0000 S   0  0  0  0  0  0  0  0  0  0  0  0
    3.7834   -3.3799    4.3371 O   0  0  0  0  0  0  0  0  0  0  0  0
    4.0734   -3.0657    5.6824 C   0  0  0  0  0  0  0  0  0  0  0  0
   -1.2731   -2.5527    0.5807 H   0  0  0  0  0  0  0  0  0  0  0  0
   -2.8466   -3.2346    1.0979 H   0  0  0  0  0  0  0  0  0  0  0  0
   -1.4647   -4.3311    0.7660 H   0  0  0  0  0  0  0  0  0  0  0  0
    0.7817   -3.5831    0.9930 H   0  0  0  0  0  0  0  0  0  0  0  0
    3.0956   -3.6205    1.8982 H   0  0  0  0  0  0  0  0  0  0  0  0
    1.5576   -3.1257    5.8841 H   0  0  0  0  0  0  0  0  0  0  0  0
   -2.0009   -3.4120    4.9256 H   0  0  0  0  0  0  0  0  0  0  0  0
   -0.3364   -2.1213    8.6510 H   0  0  0  0  0  0  0  0  0  0  0  0
    1.4984   -0.7653    9.6634 H   0  0  0  0  0  0  0  0  0  0  0  0
    2.7610    0.8668    8.2383 H   0  0  0  0  0  0  0  0  0  0  0  0
    2.1593    1.1021    5.8335 H   0  0  0  0  0  0  0  0  0  0  0  0
    2.0843   -0.0017    1.7941 H   0  0  0  0  0  0  0  0  0  0  0  0
   -1.3331    0.2085   -0.0578 H   0  0  0  0  0  0  0  0  0  0  0  0
    5.1677   -3.0335    5.7679 H   0  0  0  0  0  0  0  0  0  0  0  0
    3.6542   -2.0850    5.9694 H   0  0  0  0  0  0  0  0  0  0  0  0
    3.6858   -3.8332    6.3766 H   0  0  0  0  0  0  0  0  0  0  0  0
  1  2  1  0  0  0  0
  2  3  1  0  0  0  0
  3  8  2  0  0  0  0
  4  5  2  0  0  0  0
  4  3  1  0  0  0  0
  5  6  1  0  0  0  0
  6 25  1  0  0  0  0
  6  7  2  0  0  0  0
  7 32  1  0  0  0  0
  8  7  1  0  0  0  0
  8  9  1  0  0  0  0
  9 10  2  0  0  0  0
 10 11  1  0  0  0  0
 11 12  2  0  0  0  0
 12 13  1  0  0  0  0
 12 34  1  0  0  0  0
 13 35  1  0  0  0  0
 14 36  1  0  0  0  0
 14 13  2  0  0  0  0
 15 14  1  0  0  0  0
 16 15  2  0  0  0  0
 16 11  1  0  0  0  0
 17 16  1  0  0  0  0
 18 17  2  0  0  0  0
 19 18  1  0  0  0  0
 20 19  1  0  0  0  0
 20 21  2  0  0  0  0
 21 22  2  0  0  0  0
 22 17  1  0  0  0  0
 22 23  2  0  0  0  0
 24 20  1  0  0  0  0
 25 26  1  0  0  0  0
 26 40  1  0  0  0  0
 26 41  1  0  0  0  0
 26 42  1  0  0  0  0
 27  1  1  0  0  0  0
 28  1  1  0  0  0  0
 29  1  1  0  0  0  0
 30  4  1  0  0  0  0
 31  5  1  0  0  0  0
 33  9  1  0  0  0  0
 37 15  1  0  0  0  0
 38 19  1  0  0  0  0
 39 24  1  0  0  0  0
M  END
