30397128.xyz
 OpenBabel08132112093D
CCOc1cc(ccc1O)C1NC(=NC(=C1C(=O)OC(C)(C)C)C)S
 49 50  0  0  1  0  0  0  0  0999 V2000
    0.8424    4.2184    0.5612 C   0  0  0  0  0  0  0  0  0  0  0  0
    1.0388    4.7823    1.9624 C   0  0  0  0  0  0  0  0  0  0  0  0
   -0.1759    5.1882    2.5765 O   0  0  0  0  0  0  0  0  0  0  0  0
   -1.0054    4.2588    3.1088 C   0  0  0  0  0  0  0  0  0  0  0  0
   -0.7520    2.8899    3.1617 C   0  0  0  0  0  0  0  0  0  0  0  0
   -1.6752    1.9949    3.7340 C   0  0  0  0  0  0  0  0  0  0  0  0
   -2.8545    2.4918    4.2808 C   0  0  0  0  0  0  0  0  0  0  0  0
   -3.1154    3.8680    4.2470 C   0  0  0  0  0  0  0  0  0  0  0  0
   -2.2132    4.7565    3.6647 C   0  0  0  0  0  0  0  0  0  0  0  0
   -2.4198    6.0955    3.5997 O   0  0  0  0  0  0  0  0  0  0  0  0
   -1.3707    0.5059    3.7261 C   0  0  1  0  0  0  0  0  0  0  0  0
   -1.2206   -0.0046    2.3549 N   0  0  0  0  0  0  0  0  0  0  0  0
    0.0000   -0.0000    1.7767 C   0  0  0  0  0  0  0  0  0  0  0  0
    1.1231   -0.0000    2.4245 N   0  0  0  0  0  0  0  0  0  0  0  0
    1.0687   -0.0527    3.8135 C   0  0  0  0  0  0  0  0  0  0  0  0
   -0.1050    0.1514    4.4927 C   0  0  1  0  0  0  0  0  0  0  0  0
   -0.3146    0.1286    5.9487 C   0  0  0  0  0  0  0  0  0  0  0  0
   -1.4217    0.2503    6.4455 O   0  0  0  0  0  0  0  0  0  0  0  0
    0.8141   -0.0294    6.6644 O   0  0  0  0  0  0  0  0  0  0  0  0
    0.8109   -0.0447    8.1261 C   0  0  0  0  0  0  0  0  0  0  0  0
    2.2883   -0.2288    8.4700 C   0  0  0  0  0  0  0  0  0  0  0  0
    0.2954    1.2929    8.6623 C   0  0  0  0  0  0  0  0  0  0  0  0
   -0.0132   -1.2281    8.6384 C   0  0  0  0  0  0  0  0  0  0  0  0
    2.4040   -0.3479    4.4452 C   0  0  0  0  0  0  0  0  0  0  0  0
    0.0000    0.0000    0.0000 S   0  0  0  0  0  0  0  0  0  0  0  0
    0.2803    3.2732    0.5643 H   0  0  0  0  0  0  0  0  0  0  0  0
    0.2985    4.9416   -0.0655 H   0  0  0  0  0  0  0  0  0  0  0  0
    1.8222    4.0235    0.0966 H   0  0  0  0  0  0  0  0  0  0  0  0
    1.5763    4.0663    2.6101 H   0  0  0  0  0  0  0  0  0  0  0  0
    1.6460    5.6987    1.9182 H   0  0  0  0  0  0  0  0  0  0  0  0
    0.1782    2.4988    2.7540 H   0  0  0  0  0  0  0  0  0  0  0  0
   -3.5672    1.8111    4.7506 H   0  0  0  0  0  0  0  0  0  0  0  0
   -4.0387    4.2629    4.6829 H   0  0  0  0  0  0  0  0  0  0  0  0
   -3.2637    6.3002    4.0226 H   0  0  0  0  0  0  0  0  0  0  0  0
   -2.2158   -0.0169    4.1930 H   0  0  0  0  0  0  0  0  0  0  0  0
   -2.0418    0.0290    1.7612 H   0  0  0  0  0  0  0  0  0  0  0  0
    2.8860    0.6009    8.0636 H   0  0  0  0  0  0  0  0  0  0  0  0
    2.4241   -0.2558    9.5614 H   0  0  0  0  0  0  0  0  0  0  0  0
    2.6700   -1.1701    8.0468 H   0  0  0  0  0  0  0  0  0  0  0  0
   -0.7626    1.4362    8.4126 H   0  0  0  0  0  0  0  0  0  0  0  0
    0.8770    2.1231    8.2326 H   0  0  0  0  0  0  0  0  0  0  0  0
    0.4125    1.3214    9.7567 H   0  0  0  0  0  0  0  0  0  0  0  0
   -1.0737   -1.1063    8.3879 H   0  0  0  0  0  0  0  0  0  0  0  0
    0.3526   -2.1665    8.1936 H   0  0  0  0  0  0  0  0  0  0  0  0
    0.0900   -1.3038    9.7320 H   0  0  0  0  0  0  0  0  0  0  0  0
    3.1369   -0.5165    3.6464 H   0  0  0  0  0  0  0  0  0  0  0  0
    2.3534   -1.2286    5.0997 H   0  0  0  0  0  0  0  0  0  0  0  0
    2.7350    0.4870    5.0798 H   0  0  0  0  0  0  0  0  0  0  0  0
    1.3325   -0.2062   -0.0747 H   0  0  0  0  0  0  0  0  0  0  0  0
  1 26  1  0  0  0  0
  1  2  1  0  0  0  0
  2  3  1  0  0  0  0
  2 29  1  0  0  0  0
  3  4  1  0  0  0  0
  4  5  2  0  0  0  0
  4  9  1  0  0  0  0
  5  6  1  0  0  0  0
  6  7  2  0  0  0  0
  7 32  1  0  0  0  0
  8  7  1  0  0  0  0
  8 33  1  0  0  0  0
  9  8  2  0  0  0  0
 10  9  1  0  0  0  0
 10 34  1  0  0  0  0
 11  6  1  0  0  0  0
 11 35  1  1  0  0  0
 12 11  1  0  0  0  0
 13 12  1  0  0  0  0
 13 14  2  0  0  0  0
 14 15  2  0  0  0  0
 15 24  1  0  0  0  0
 15 16  1  0  0  0  0
 16 11  1  1  0  0  0
 16 17  1  0  0  0  0
 17 18  2  0  0  0  0
 17 19  1  0  0  0  0
 19 20  1  0  0  0  0
 20 21  1  0  0  0  0
 20 23  1  0  0  0  0
 20 22  1  0  0  0  0
 21 38  1  0  0  0  0
 22 42  1  0  0  0  0
 23 45  1  0  0  0  0
 24 48  1  0  0  0  0
 24 47  1  0  0  0  0
 25 13  1  0  0  0  0
 27  1  1  0  0  0  0
 28  1  1  0  0  0  0
 30  2  1  0  0  0  0
 31  5  1  0  0  0  0
 36 12  1  0  0  0  0
 37 21  1  0  0  0  0
 39 21  1  0  0  0  0
 40 22  1  0  0  0  0
 41 22  1  0  0  0  0
 43 23  1  0  0  0  0
 44 23  1  0  0  0  0
 46 24  1  0  0  0  0
 49 25  1  0  0  0  0
M  RAD  1  16   2
M  END
