303968960.xyz
 OpenBabel08132112093D
Cc1ncc(c(=O)n1CC=CCS)Br
 25 25  0  0  1  0  0  0  0  0999 V2000
    4.6028    0.8301    0.9272 C   0  0  0  0  0  0  0  0  0  0  0  0
    4.7120    2.0993    1.7217 C   0  0  0  0  0  0  0  0  0  0  0  0
    5.3648    3.1024    1.1981 N   0  0  0  0  0  0  0  0  0  0  0  0
    5.4576    4.2591    1.9073 C   0  0  0  0  0  0  0  0  0  0  0  0
    4.8893    4.4278    3.1384 C   0  0  2  0  0  0  0  0  0  0  0  0
    4.1327    3.3505    3.7570 C   0  0  0  0  0  0  0  0  0  0  0  0
    3.5476    3.3845    4.8232 O   0  0  0  0  0  0  0  0  0  0  0  0
    4.1241    2.1655    2.9613 N   0  0  0  0  0  0  0  0  0  0  0  0
    3.3684    1.0342    3.5343 C   0  0  0  0  0  0  0  0  0  0  0  0
    1.9456    1.0187    3.0570 C   0  0  0  0  0  0  0  0  0  0  0  0
    1.3902    0.0000    2.3911 C   0  0  0  0  0  0  0  0  0  0  0  0
   -0.0000    0.0000    1.8481 C   0  0  0  0  0  0  0  0  0  0  0  0
    0.0000    0.0000    0.0000 S   0  0  0  0  0  0  0  0  0  0  0  0
    5.0216    6.0507    4.0917 Br  0  0  0  0  0  0  0  0  0  0  0  0
    5.1314    0.9850   -0.0196 H   0  0  0  0  0  0  0  0  0  0  0  0
    3.5526    0.5716    0.7235 H   0  0  0  0  0  0  0  0  0  0  0  0
    5.0586   -0.0222    1.4558 H   0  0  0  0  0  0  0  0  0  0  0  0
    6.0158    5.0761    1.4401 H   0  0  0  0  0  0  0  0  0  0  0  0
    3.8814    0.0963    3.2904 H   0  0  0  0  0  0  0  0  0  0  0  0
    3.3992    1.1848    4.6215 H   0  0  0  0  0  0  0  0  0  0  0  0
    1.3629    1.9203    3.2789 H   0  0  0  0  0  0  0  0  0  0  0  0
    1.9893   -0.8910    2.1661 H   0  0  0  0  0  0  0  0  0  0  0  0
   -0.5384   -0.9240    2.1116 H   0  0  0  0  0  0  0  0  0  0  0  0
   -0.5873    0.8514    2.2213 H   0  0  0  0  0  0  0  0  0  0  0  0
    0.5993    1.2054   -0.1370 H   0  0  0  0  0  0  0  0  0  0  0  0
  1 17  1  0  0  0  0
  1  2  1  0  0  0  0
  2  8  1  0  0  0  0
  3  2  2  0  0  0  0
  3  4  2  0  0  0  0
  4  5  1  0  0  0  0
  5  6  1  0  0  0  0
  5 14  1  6  0  0  0
  6  7  2  0  0  0  0
  8  9  1  0  0  0  0
  8  6  1  0  0  0  0
  9 20  1  0  0  0  0
 10 21  1  0  0  0  0
 10  9  1  0  0  0  0
 11 10  2  0  0  0  0
 12 23  1  0  0  0  0
 12 24  1  0  0  0  0
 12 11  1  0  0  0  0
 13 12  1  0  0  0  0
 15  1  1  0  0  0  0
 16  1  1  0  0  0  0
 18  4  1  0  0  0  0
 19  9  1  0  0  0  0
 22 11  1  0  0  0  0
 25 13  1  0  0  0  0
M  RAD  1   5   2
M  END
