30393818.xyz
 OpenBabel08132112093D
Clc1ccc(cc1)C1NC(=NC2=C1CCc1c2cccc1)S
 37 40  0  0  1  0  0  0  0  0999 V2000
   -3.3733    6.0831    4.2710 Cl  0  0  0  0  0  0  0  0  0  0  0  0
   -2.8273    4.4301    4.1238 C   0  0  0  0  0  0  0  0  0  0  0  0
   -3.6944    3.3859    4.4486 C   0  0  0  0  0  0  0  0  0  0  0  0
   -3.2457    2.0678    4.3249 C   0  0  0  0  0  0  0  0  0  0  0  0
   -1.9477    1.7850    3.8887 C   0  0  0  0  0  0  0  0  0  0  0  0
   -1.0912    2.8512    3.5747 C   0  0  0  0  0  0  0  0  0  0  0  0
   -1.5238    4.1710    3.6844 C   0  0  0  0  0  0  0  0  0  0  0  0
   -1.4578    0.3463    3.7420 C   0  0  1  0  0  0  0  0  0  0  0  0
   -1.2453   -0.0204    2.3391 N   0  0  0  0  0  0  0  0  0  0  0  0
   -0.0000   -0.0000    1.7822 C   0  0  0  0  0  0  0  0  0  0  0  0
    1.1038    0.0000    2.4405 N   0  0  0  0  0  0  0  0  0  0  0  0
    1.0016   -0.0365    3.8382 C   0  0  0  0  0  0  0  0  0  0  0  0
   -0.1753    0.1025    4.5013 C   0  0  2  0  0  0  0  0  0  0  0  0
   -0.2483    0.0164    6.0016 C   0  0  0  0  0  0  0  0  0  0  0  0
    1.0481    0.5062    6.6483 C   0  0  0  0  0  0  0  0  0  0  0  0
    2.2739   -0.0769    5.9842 C   0  0  0  0  0  0  0  0  0  0  0  0
    2.2511   -0.2883    4.5870 C   0  0  0  0  0  0  0  0  0  0  0  0
    3.4068   -0.7407    3.9350 C   0  0  0  0  0  0  0  0  0  0  0  0
    4.5715   -1.0046    4.6579 C   0  0  0  0  0  0  0  0  0  0  0  0
    4.5914   -0.8119    6.0413 C   0  0  0  0  0  0  0  0  0  0  0  0
    3.4455   -0.3461    6.6950 C   0  0  0  0  0  0  0  0  0  0  0  0
    0.0000    0.0000    0.0000 S   0  0  0  0  0  0  0  0  0  0  0  0
   -4.7054    3.6068    4.7937 H   0  0  0  0  0  0  0  0  0  0  0  0
   -3.9218    1.2457    4.5772 H   0  0  0  0  0  0  0  0  0  0  0  0
   -0.0701    2.6425    3.2468 H   0  0  0  0  0  0  0  0  0  0  0  0
   -0.8607    5.0018    3.4392 H   0  0  0  0  0  0  0  0  0  0  0  0
   -2.2491   -0.3118    4.1470 H   0  0  0  0  0  0  0  0  0  0  0  0
   -2.0490    0.0328    1.7244 H   0  0  0  0  0  0  0  0  0  0  0  0
   -0.4503   -1.0331    6.2974 H   0  0  0  0  0  0  0  0  0  0  0  0
   -1.0996    0.6093    6.3740 H   0  0  0  0  0  0  0  0  0  0  0  0
    1.0544    0.2901    7.7275 H   0  0  0  0  0  0  0  0  0  0  0  0
    1.0922    1.6074    6.5457 H   0  0  0  0  0  0  0  0  0  0  0  0
    3.3671   -0.8810    2.8544 H   0  0  0  0  0  0  0  0  0  0  0  0
    5.4651   -1.3625    4.1406 H   0  0  0  0  0  0  0  0  0  0  0  0
    5.4988   -1.0201    6.6137 H   0  0  0  0  0  0  0  0  0  0  0  0
    3.4636   -0.1830    7.7763 H   0  0  0  0  0  0  0  0  0  0  0  0
    1.3397   -0.1475   -0.0744 H   0  0  0  0  0  0  0  0  0  0  0  0
  2  1  1  0  0  0  0
  2  3  2  0  0  0  0
  3 23  1  0  0  0  0
  4  3  1  0  0  0  0
  4 24  1  0  0  0  0
  5  4  2  0  0  0  0
  6  7  2  0  0  0  0
  6  5  1  0  0  0  0
  7  2  1  0  0  0  0
  8  5  1  0  0  0  0
  8 27  1  1  0  0  0
  9  8  1  0  0  0  0
 10  9  1  0  0  0  0
 10 11  2  0  0  0  0
 11 12  2  0  0  0  0
 12 13  1  0  0  0  0
 12 17  1  0  0  0  0
 13  8  1  6  0  0  0
 13 14  1  0  0  0  0
 14 29  1  0  0  0  0
 14 30  1  0  0  0  0
 14 15  1  0  0  0  0
 15 31  1  0  0  0  0
 16 15  1  0  0  0  0
 16 21  2  0  0  0  0
 17 16  1  0  0  0  0
 18 17  2  0  0  0  0
 18 19  1  0  0  0  0
 19 20  2  0  0  0  0
 20 35  1  0  0  0  0
 20 21  1  0  0  0  0
 21 36  1  0  0  0  0
 22 10  1  0  0  0  0
 25  6  1  0  0  0  0
 26  7  1  0  0  0  0
 28  9  1  0  0  0  0
 32 15  1  0  0  0  0
 33 18  1  0  0  0  0
 34 19  1  0  0  0  0
 37 22  1  0  0  0  0
M  RAD  1  13   2
M  END
