304085116.xyz
 OpenBabel08132112093D
SCC(=O)N1CCOCC1C(=O)N
 25 25  0  0  1  0  0  0  0  0999 V2000
    0.0000    0.0000    0.0000 S   0  0  0  0  0  0  0  0  0  0  0  0
    0.0000   -0.0000    1.8419 C   0  0  0  0  0  0  0  0  0  0  0  0
    1.4041   -0.0000    2.4349 C   0  0  0  0  0  0  0  0  0  0  0  0
    1.9516    1.0525    2.7042 O   0  0  0  0  0  0  0  0  0  0  0  0
    2.0141   -1.2216    2.6858 N   0  0  0  0  0  0  0  0  0  0  0  0
    1.6172   -2.4091    1.9203 C   0  0  0  0  0  0  0  0  0  0  0  0
    2.2416   -3.6739    2.4869 C   0  0  0  0  0  0  0  0  0  0  0  0
    3.6386   -3.5440    2.5616 O   0  0  0  0  0  0  0  0  0  0  0  0
    3.9767   -2.5265    3.4720 C   0  0  0  0  0  0  0  0  0  0  0  0
    3.4359   -1.1426    3.0664 C   0  0  2  0  0  0  0  0  0  0  0  0
    3.7255   -0.2180    4.2586 C   0  0  0  0  0  0  0  0  0  0  0  0
    4.7910    0.3555    4.3451 O   0  0  0  0  0  0  0  0  0  0  0  0
    2.8020   -0.2601    5.2654 N   0  0  0  0  0  0  0  0  0  0  0  0
    0.0062   -1.3401   -0.1723 H   0  0  0  0  0  0  0  0  0  0  0  0
   -0.6439   -0.8041    2.2220 H   0  0  0  0  0  0  0  0  0  0  0  0
   -0.4422    0.9635    2.1242 H   0  0  0  0  0  0  0  0  0  0  0  0
    1.9357   -2.3017    0.8670 H   0  0  0  0  0  0  0  0  0  0  0  0
    0.5234   -2.5125    1.9360 H   0  0  0  0  0  0  0  0  0  0  0  0
    1.8173   -3.8897    3.4897 H   0  0  0  0  0  0  0  0  0  0  0  0
    2.0176   -4.5242    1.8260 H   0  0  0  0  0  0  0  0  0  0  0  0
    3.5899   -2.7789    4.4791 H   0  0  0  0  0  0  0  0  0  0  0  0
    5.0712   -2.4659    3.5273 H   0  0  0  0  0  0  0  0  0  0  0  0
    4.0267   -0.7434    2.2261 H   0  0  0  0  0  0  0  0  0  0  0  0
    1.8608   -0.5699    5.0599 H   0  0  0  0  0  0  0  0  0  0  0  0
    2.9206    0.4134    6.0137 H   0  0  0  0  0  0  0  0  0  0  0  0
  1  2  1  0  0  0  0
  2 16  1  0  0  0  0
  2 15  1  0  0  0  0
  2  3  1  0  0  0  0
  3  5  1  0  0  0  0
  3  4  2  0  0  0  0
  5 10  1  0  0  0  0
  6 18  1  0  0  0  0
  6  7  1  0  0  0  0
  6  5  1  0  0  0  0
  7  8  1  0  0  0  0
  7 19  1  0  0  0  0
  8  9  1  0  0  0  0
  9 22  1  0  0  0  0
  9 21  1  0  0  0  0
 10 23  1  6  0  0  0
 10  9  1  0  0  0  0
 10 11  1  0  0  0  0
 11 12  2  0  0  0  0
 11 13  1  0  0  0  0
 13 25  1  0  0  0  0
 14  1  1  0  0  0  0
 17  6  1  0  0  0  0
 20  7  1  0  0  0  0
 24 13  1  0  0  0  0
M  END
