304070264.xyz
 OpenBabel08132112093D
OCC1CCCN(CC1)C(=O)CS
 30 30  0  0  1  0  0  0  0  0999 V2000
    3.3111    4.3673    6.5792 O   0  0  0  0  0  0  0  0  0  0  0  0
    3.3391    2.9935    6.2464 C   0  0  0  0  0  0  0  0  0  0  0  0
    3.3596    2.8473    4.7271 C   0  0  2  0  0  0  0  0  0  0  0  0
    2.1008    3.4719    4.0999 C   0  0  0  0  0  0  0  0  0  0  0  0
    2.1721    3.6285    2.5747 C   0  0  0  0  0  0  0  0  0  0  0  0
    1.7040    2.4033    1.7781 C   0  0  0  0  0  0  0  0  0  0  0  0
    2.1591    1.1402    2.3457 N   0  0  0  0  0  0  0  0  0  0  0  0
    3.5255    1.0615    2.8580 C   0  0  0  0  0  0  0  0  0  0  0  0
    3.6079    1.3809    4.3530 C   0  0  0  0  0  0  0  0  0  0  0  0
    1.4066   -0.0000    2.4290 C   0  0  0  0  0  0  0  0  0  0  0  0
    1.8416   -1.0302    2.9284 O   0  0  0  0  0  0  0  0  0  0  0  0
   -0.0000   -0.0000    1.8389 C   0  0  0  0  0  0  0  0  0  0  0  0
    0.0000    0.0000    0.0000 S   0  0  0  0  0  0  0  0  0  0  0  0
    3.2033    4.4515    7.5339 H   0  0  0  0  0  0  0  0  0  0  0  0
    4.2344    2.4953    6.6707 H   0  0  0  0  0  0  0  0  0  0  0  0
    2.4521    2.4594    6.6473 H   0  0  0  0  0  0  0  0  0  0  0  0
    4.2213    3.4434    4.3715 H   0  0  0  0  0  0  0  0  0  0  0  0
    1.2116    2.8768    4.3799 H   0  0  0  0  0  0  0  0  0  0  0  0
    1.9726    4.4613    4.5618 H   0  0  0  0  0  0  0  0  0  0  0  0
    3.2024    3.8983    2.2895 H   0  0  0  0  0  0  0  0  0  0  0  0
    1.5482    4.4774    2.2503 H   0  0  0  0  0  0  0  0  0  0  0  0
    2.0254    2.4901    0.7239 H   0  0  0  0  0  0  0  0  0  0  0  0
    0.6079    2.3986    1.7610 H   0  0  0  0  0  0  0  0  0  0  0  0
    3.8805    0.0369    2.6900 H   0  0  0  0  0  0  0  0  0  0  0  0
    4.1606    1.7432    2.2708 H   0  0  0  0  0  0  0  0  0  0  0  0
    2.8834    0.7262    4.8666 H   0  0  0  0  0  0  0  0  0  0  0  0
    4.6056    1.0832    4.7194 H   0  0  0  0  0  0  0  0  0  0  0  0
   -0.5964    0.8746    2.1334 H   0  0  0  0  0  0  0  0  0  0  0  0
   -0.4971   -0.9024    2.2139 H   0  0  0  0  0  0  0  0  0  0  0  0
    0.7233   -1.1368   -0.1254 H   0  0  0  0  0  0  0  0  0  0  0  0
  1 14  1  0  0  0  0
  2  1  1  0  0  0  0
  2 16  1  0  0  0  0
  2 15  1  0  0  0  0
  3 17  1  6  0  0  0
  3  2  1  0  0  0  0
  4 18  1  0  0  0  0
  4 19  1  0  0  0  0
  4  3  1  0  0  0  0
  5  4  1  0  0  0  0
  6  7  1  0  0  0  0
  6  5  1  0  0  0  0
  7 10  1  0  0  0  0
  7  8  1  0  0  0  0
  8  9  1  0  0  0  0
  9 27  1  0  0  0  0
  9  3  1  0  0  0  0
  9 26  1  0  0  0  0
 10 11  2  0  0  0  0
 12 28  1  0  0  0  0
 12 29  1  0  0  0  0
 12 10  1  0  0  0  0
 13 12  1  0  0  0  0
 20  5  1  0  0  0  0
 21  5  1  0  0  0  0
 22  6  1  0  0  0  0
 23  6  1  0  0  0  0
 24  8  1  0  0  0  0
 25  8  1  0  0  0  0
 30 13  1  0  0  0  0
M  END
