31274332.xyz
 OpenBabel08132112093D
Cc1cc(S)nc(n1)N1CCN(CC1)c1ccccc1
 38 40  0  0  0  0  0  0  0  0999 V2000
   -2.4040    0.0205    4.6971 C   0  0  0  0  0  0  0  0  0  0  0  0
   -1.1633    0.0083    3.8479 C   0  0  0  0  0  0  0  0  0  0  0  0
   -1.2296    0.0047    2.4511 C   0  0  0  0  0  0  0  0  0  0  0  0
    0.0000    0.0000    1.7724 C   0  0  0  0  0  0  0  0  0  0  0  0
    0.0000    0.0000    0.0000 S   0  0  0  0  0  0  0  0  0  0  0  0
    1.1663    0.0000    2.4037 N   0  0  0  0  0  0  0  0  0  0  0  0
    1.1246   -0.0048    3.7535 C   0  0  0  0  0  0  0  0  0  0  0  0
    0.0054   -0.0011    4.4968 N   0  0  0  0  0  0  0  0  0  0  0  0
    2.3247   -0.0147    4.4015 N   0  0  0  0  0  0  0  0  0  0  0  0
    3.5740   -0.0094    3.6517 C   0  0  0  0  0  0  0  0  0  0  0  0
    4.7447   -0.3920    4.5506 C   0  0  0  0  0  0  0  0  0  0  0  0
    4.8268    0.4730    5.7128 N   0  0  0  0  0  0  0  0  0  0  0  0
    3.5738    0.9571    6.2704 C   0  0  0  0  0  0  0  0  0  0  0  0
    2.4116    0.0650    5.8511 C   0  0  0  0  0  0  0  0  0  0  0  0
    6.0371    0.7619    6.3218 C   0  0  0  0  0  0  0  0  0  0  0  0
    6.1391    1.7965    7.2822 C   0  0  0  0  0  0  0  0  0  0  0  0
    7.3577    2.0859    7.8944 C   0  0  0  0  0  0  0  0  0  0  0  0
    8.5145    1.3697    7.5761 C   0  0  0  0  0  0  0  0  0  0  0  0
    8.4249    0.3462    6.6291 C   0  0  0  0  0  0  0  0  0  0  0  0
    7.2129    0.0375    6.0130 C   0  0  0  0  0  0  0  0  0  0  0  0
   -2.4062    0.9140    5.3414 H   0  0  0  0  0  0  0  0  0  0  0  0
   -3.3204    0.0132    4.0915 H   0  0  0  0  0  0  0  0  0  0  0  0
   -2.4064   -0.8542    5.3663 H   0  0  0  0  0  0  0  0  0  0  0  0
   -2.1812    0.0081    1.9201 H   0  0  0  0  0  0  0  0  0  0  0  0
    1.3481    0.0060   -0.0985 H   0  0  0  0  0  0  0  0  0  0  0  0
    3.7549    0.9873    3.2084 H   0  0  0  0  0  0  0  0  0  0  0  0
    3.5022   -0.7165    2.8133 H   0  0  0  0  0  0  0  0  0  0  0  0
    5.6628   -0.2858    3.9551 H   0  0  0  0  0  0  0  0  0  0  0  0
    4.6686   -1.4626    4.8313 H   0  0  0  0  0  0  0  0  0  0  0  0
    3.3641    2.0025    5.9666 H   0  0  0  0  0  0  0  0  0  0  0  0
    3.6332    0.9483    7.3709 H   0  0  0  0  0  0  0  0  0  0  0  0
    1.4638    0.4635    6.2310 H   0  0  0  0  0  0  0  0  0  0  0  0
    2.5397   -0.9412    6.2924 H   0  0  0  0  0  0  0  0  0  0  0  0
    5.2655    2.3964    7.5361 H   0  0  0  0  0  0  0  0  0  0  0  0
    7.4011    2.8956    8.6277 H   0  0  0  0  0  0  0  0  0  0  0  0
    9.4662    1.6034    8.0573 H   0  0  0  0  0  0  0  0  0  0  0  0
    9.3127   -0.2366    6.3692 H   0  0  0  0  0  0  0  0  0  0  0  0
    7.1786   -0.7893    5.3039 H   0  0  0  0  0  0  0  0  0  0  0  0
  1 21  1  0  0  0  0
  1 23  1  0  0  0  0
  2  8  2  0  0  0  0
  2  1  1  0  0  0  0
  3  2  1  0  0  0  0
  4  6  2  0  0  0  0
  4  3  1  0  0  0  0
  5  4  1  0  0  0  0
  6  7  2  0  0  0  0
  7  9  1  0  0  0  0
  7  8  2  0  0  0  0
  9 14  1  0  0  0  0
 10  9  1  0  0  0  0
 10 11  1  0  0  0  0
 11 29  1  0  0  0  0
 11 12  1  0  0  0  0
 12 13  1  0  0  0  0
 12 15  1  0  0  0  0
 13 31  1  0  0  0  0
 14 32  1  0  0  0  0
 14 13  1  0  0  0  0
 14 33  1  0  0  0  0
 15 16  1  0  0  0  0
 16 34  1  0  0  0  0
 16 17  2  0  0  0  0
 17 35  1  0  0  0  0
 18 17  1  0  0  0  0
 18 36  1  0  0  0  0
 19 18  2  0  0  0  0
 20 15  2  0  0  0  0
 20 19  1  0  0  0  0
 22  1  1  0  0  0  0
 24  3  1  0  0  0  0
 25  5  1  0  0  0  0
 26 10  1  0  0  0  0
 27 10  1  0  0  0  0
 28 11  1  0  0  0  0
 30 13  1  0  0  0  0
 37 19  1  0  0  0  0
 38 20  1  0  0  0  0
M  RAD  1   3   2
M  END
