313145256.xyz
 OpenBabel08132112093D
FC(Oc1ccc(c(c1Br)C(F)F)S)F
 20 20  0  0  0  0  0  0  0  0999 V2000
    2.0370   -1.4184    6.3701 F   0  0  0  0  0  0  0  0  0  0  0  0
    0.7449   -1.0623    6.5850 C   0  0  0  0  0  0  0  0  0  0  0  0
    0.4610    0.1171    5.9394 O   0  0  0  0  0  0  0  0  0  0  0  0
    0.3091    0.0515    4.5724 C   0  0  0  0  0  0  0  0  0  0  0  0
    1.4304    0.0353    3.7427 C   0  0  0  0  0  0  0  0  0  0  0  0
    1.2761    0.0000    2.3636 C   0  0  0  0  0  0  0  0  0  0  0  0
   -0.0000    0.0000    1.7765 C   0  0  0  0  0  0  0  0  0  0  0  0
   -1.1487    0.0363    2.6039 C   0  0  0  0  0  0  0  0  0  0  0  0
   -0.9710    0.0438    4.0007 C   0  0  0  0  0  0  0  0  0  0  0  0
   -2.4501    0.0438    5.2098 Br  0  0  0  0  0  0  0  0  0  0  0  0
   -2.5366    0.0967    2.0122 C   0  0  0  0  0  0  0  0  0  0  0  0
   -2.6744    1.1882    1.2133 F   0  0  0  0  0  0  0  0  0  0  0  0
   -2.7765   -1.0010    1.2256 F   0  0  0  0  0  0  0  0  0  0  0  0
    0.0000    0.0000    0.0000 S   0  0  0  0  0  0  0  0  0  0  0  0
    0.5897   -0.8405    7.8906 F   0  0  0  0  0  0  0  0  0  0  0  0
    0.0981   -1.8940    6.2532 H   0  0  0  0  0  0  0  0  0  0  0  0
    2.4192    0.0410    4.2023 H   0  0  0  0  0  0  0  0  0  0  0  0
    2.1583   -0.0342    1.7213 H   0  0  0  0  0  0  0  0  0  0  0  0
   -3.3179    0.1301    2.7817 H   0  0  0  0  0  0  0  0  0  0  0  0
   -1.2789   -0.3764   -0.1925 H   0  0  0  0  0  0  0  0  0  0  0  0
  1  2  1  0  0  0  0
  2 15  1  0  0  0  0
  3  2  1  0  0  0  0
  4  3  1  0  0  0  0
  5 17  1  0  0  0  0
  5  4  2  0  0  0  0
  6  5  1  0  0  0  0
  7  6  2  0  0  0  0
  7  8  1  0  0  0  0
  8  9  2  0  0  0  0
  9  4  1  0  0  0  0
  9 10  1  0  0  0  0
 11  8  1  0  0  0  0
 11 19  1  0  0  0  0
 12 11  1  0  0  0  0
 13 11  1  0  0  0  0
 14  7  1  0  0  0  0
 16  2  1  0  0  0  0
 18  6  1  0  0  0  0
 20 14  1  0  0  0  0
M  END
