313170392.xyz
 OpenBabel08132112093D
CC(=O)c1c(Br)ccc(c1S)I
 18 18  0  0  0  0  0  0  0  0999 V2000
   -3.1462    1.3304    1.3288 C   0  0  0  0  0  0  0  0  0  0  0  0
   -2.5286   -0.0268    1.5575 C   0  0  0  0  0  0  0  0  0  0  0  0
   -2.9578   -1.0520    1.0876 O   0  0  0  0  0  0  0  0  0  0  0  0
   -1.2645   -0.0387    2.4121 C   0  0  0  0  0  0  0  0  0  0  0  0
   -1.3397   -0.0900    3.8053 C   0  0  0  0  0  0  0  0  0  0  0  0
   -3.0438   -0.1530    4.6642 Br  0  0  0  0  0  0  0  0  0  0  0  0
   -0.1918   -0.0874    4.5991 C   0  0  0  0  0  0  0  0  0  0  0  0
    1.0550   -0.0338    3.9810 C   0  0  0  0  0  0  0  0  0  0  0  0
    1.1553   -0.0000    2.5868 C   0  0  0  0  0  0  0  0  0  0  0  0
    0.0000    0.0000    1.7803 C   0  0  0  0  0  0  0  0  0  0  0  0
    0.0000    0.0000    0.0000 S   0  0  0  0  0  0  0  0  0  0  0  0
    3.1158    0.0526    1.7632 I   0  0  0  0  0  0  0  0  0  0  0  0
   -2.4190    1.9627    0.7937 H   0  0  0  0  0  0  0  0  0  0  0  0
   -4.0636    1.2276    0.7347 H   0  0  0  0  0  0  0  0  0  0  0  0
   -3.3644    1.8164    2.2922 H   0  0  0  0  0  0  0  0  0  0  0  0
   -0.2710   -0.1262    5.6859 H   0  0  0  0  0  0  0  0  0  0  0  0
    1.9586   -0.0285    4.5919 H   0  0  0  0  0  0  0  0  0  0  0  0
    1.2023    0.6054   -0.1386 H   0  0  0  0  0  0  0  0  0  0  0  0
  1  2  1  0  0  0  0
  1 15  1  0  0  0  0
  2  4  1  0  0  0  0
  3  2  2  0  0  0  0
  4  5  1  0  0  0  0
  5  7  2  0  0  0  0
  5  6  1  0  0  0  0
  7 16  1  0  0  0  0
  8 17  1  0  0  0  0
  8  7  1  0  0  0  0
  9  8  2  0  0  0  0
 10  4  2  0  0  0  0
 10  9  1  0  0  0  0
 11 10  1  0  0  0  0
 12  9  1  0  0  0  0
 13  1  1  0  0  0  0
 14  1  1  0  0  0  0
 18 11  1  0  0  0  0
M  END
