313146062.xyz
 OpenBabel08132112093D
CCOc1c(Br)ccc(c1CC#N)S
 24 24  0  0  0  0  0  0  0  0999 V2000
   -4.1550   -0.8130    5.9206 C   0  0  0  0  0  0  0  0  0  0  0  0
   -2.9578   -1.1385    5.0563 C   0  0  0  0  0  0  0  0  0  0  0  0
   -2.4738    0.0894    4.4902 O   0  0  0  0  0  0  0  0  0  0  0  0
   -1.2707    0.0387    3.8588 C   0  0  0  0  0  0  0  0  0  0  0  0
   -0.0646    0.0505    4.5805 C   0  0  0  0  0  0  0  0  0  0  0  0
   -0.0916    0.1633    6.4795 Br  0  0  0  0  0  0  0  0  0  0  0  0
    1.1585    0.0272    3.9108 C   0  0  0  0  0  0  0  0  0  0  0  0
    1.1915   -0.0000    2.5193 C   0  0  0  0  0  0  0  0  0  0  0  0
    0.0000   -0.0000    1.7795 C   0  0  0  0  0  0  0  0  0  0  0  0
   -1.2387    0.0137    2.4509 C   0  0  0  0  0  0  0  0  0  0  0  0
   -2.5479    0.0241    1.6858 C   0  0  0  0  0  0  0  0  0  0  0  0
   -2.8530    1.3312    1.0920 C   0  0  0  0  0  0  0  0  0  0  0  0
   -3.0889    2.3641    0.6246 N   0  0  0  0  0  0  0  0  0  0  0  0
    0.0000    0.0000    0.0000 S   0  0  0  0  0  0  0  0  0  0  0  0
   -4.5729   -1.7340    6.3552 H   0  0  0  0  0  0  0  0  0  0  0  0
   -3.8601   -0.1389    6.7385 H   0  0  0  0  0  0  0  0  0  0  0  0
   -4.9403   -0.3170    5.3301 H   0  0  0  0  0  0  0  0  0  0  0  0
   -2.1593   -1.6142    5.6488 H   0  0  0  0  0  0  0  0  0  0  0  0
   -3.2255   -1.8311    4.2359 H   0  0  0  0  0  0  0  0  0  0  0  0
    2.0878    0.0437    4.4819 H   0  0  0  0  0  0  0  0  0  0  0  0
    2.1555   -0.0043    2.0071 H   0  0  0  0  0  0  0  0  0  0  0  0
   -2.5204   -0.7231    0.8742 H   0  0  0  0  0  0  0  0  0  0  0  0
   -3.3736   -0.2372    2.3606 H   0  0  0  0  0  0  0  0  0  0  0  0
    1.3081   -0.3063   -0.1403 H   0  0  0  0  0  0  0  0  0  0  0  0
  1 15  1  0  0  0  0
  1 16  1  0  0  0  0
  2 18  1  0  0  0  0
  2  1  1  0  0  0  0
  3  2  1  0  0  0  0
  4  3  1  0  0  0  0
  4  5  2  0  0  0  0
  5  6  1  0  0  0  0
  7 20  1  0  0  0  0
  7  5  1  0  0  0  0
  8  7  2  0  0  0  0
  9 10  2  0  0  0  0
  9  8  1  0  0  0  0
 10  4  1  0  0  0  0
 11 23  1  0  0  0  0
 11 10  1  0  0  0  0
 12 11  1  0  0  0  0
 13 12  3  0  0  0  0
 14  9  1  0  0  0  0
 17  1  1  0  0  0  0
 19  2  1  0  0  0  0
 21  8  1  0  0  0  0
 22 11  1  0  0  0  0
 24 14  1  0  0  0  0
M  END
