313133520.xyz
 OpenBabel08132112093D
NC(=O)c1c(Br)ccc(c1F)S
 17 17  0  0  0  0  0  0  0  0999 V2000
   -3.3802    0.9264    4.4208 N   0  0  0  0  0  0  0  0  0  0  0  0
   -2.5082   -0.0872    4.6753 C   0  0  0  0  0  0  0  0  0  0  0  0
   -2.7400   -0.9978    5.4420 O   0  0  0  0  0  0  0  0  0  0  0  0
   -1.1879    0.0091    3.9301 C   0  0  0  0  0  0  0  0  0  0  0  0
    0.0531    0.0102    4.5882 C   0  0  0  0  0  0  0  0  0  0  0  0
    0.1583    0.0570    6.4850 Br  0  0  0  0  0  0  0  0  0  0  0  0
    1.2455    0.0139    3.8599 C   0  0  0  0  0  0  0  0  0  0  0  0
    1.2173   -0.0000    2.4672 C   0  0  0  0  0  0  0  0  0  0  0  0
   -0.0000    0.0000    1.7719 C   0  0  0  0  0  0  0  0  0  0  0  0
   -1.1745    0.0132    2.5330 C   0  0  0  0  0  0  0  0  0  0  0  0
   -2.3582    0.0226    1.8820 F   0  0  0  0  0  0  0  0  0  0  0  0
    0.0000    0.0000    0.0000 S   0  0  0  0  0  0  0  0  0  0  0  0
   -3.2118    1.5990    3.6849 H   0  0  0  0  0  0  0  0  0  0  0  0
   -4.3110    0.8577    4.8170 H   0  0  0  0  0  0  0  0  0  0  0  0
    2.1995    0.0244    4.3878 H   0  0  0  0  0  0  0  0  0  0  0  0
    2.1550   -0.0105    1.9073 H   0  0  0  0  0  0  0  0  0  0  0  0
   -1.3365   -0.1246   -0.1441 H   0  0  0  0  0  0  0  0  0  0  0  0
  1  2  1  0  0  0  0
  1 14  1  0  0  0  0
  2  3  2  0  0  0  0
  4  5  1  0  0  0  0
  4  2  1  0  0  0  0
  5  6  1  0  0  0  0
  7 15  1  0  0  0  0
  7  5  2  0  0  0  0
  8  7  1  0  0  0  0
  9  8  2  0  0  0  0
  9 10  1  0  0  0  0
 10  4  2  0  0  0  0
 11 10  1  0  0  0  0
 12  9  1  0  0  0  0
 13  1  1  0  0  0  0
 16  8  1  0  0  0  0
 17 12  1  0  0  0  0
M  END
