313190103.xyz
 OpenBabel08132112093D
COc1ccc(c(c1S)C(=O)Cl)Br
 19 19  0  0  0  0  0  0  0  0999 V2000
   -3.6045    0.0057    2.4285 C   0  0  0  0  0  0  0  0  0  0  0  0
   -2.3545    0.0089    1.7716 O   0  0  0  0  0  0  0  0  0  0  0  0
   -1.2149   -0.0153    2.5053 C   0  0  0  0  0  0  0  0  0  0  0  0
   -1.1860   -0.0457    3.9019 C   0  0  0  0  0  0  0  0  0  0  0  0
    0.0300   -0.0729    4.5903 C   0  0  0  0  0  0  0  0  0  0  0  0
    1.2250   -0.0463    3.8800 C   0  0  0  0  0  0  0  0  0  0  0  0
    1.2175   -0.0000    2.4768 C   0  0  0  0  0  0  0  0  0  0  0  0
    0.0000    0.0000    1.7755 C   0  0  0  0  0  0  0  0  0  0  0  0
    0.0000    0.0000    0.0000 S   0  0  0  0  0  0  0  0  0  0  0  0
    2.4951    0.0478    1.6909 C   0  0  0  0  0  0  0  0  0  0  0  0
    2.9721   -0.8376    1.0643 O   0  0  0  0  0  0  0  0  0  0  0  0
    3.2410    1.6848    1.7201 Cl  0  0  0  0  0  0  0  0  0  0  0  0
    2.8724   -0.1029    4.8334 Br  0  0  0  0  0  0  0  0  0  0  0  0
   -4.3688    0.0273    1.6414 H   0  0  0  0  0  0  0  0  0  0  0  0
   -3.7252    0.8924    3.0750 H   0  0  0  0  0  0  0  0  0  0  0  0
   -3.7388   -0.9054    3.0370 H   0  0  0  0  0  0  0  0  0  0  0  0
   -2.1138   -0.0590    4.4727 H   0  0  0  0  0  0  0  0  0  0  0  0
    0.0436   -0.1144    5.6796 H   0  0  0  0  0  0  0  0  0  0  0  0
   -1.3010    0.3454   -0.1067 H   0  0  0  0  0  0  0  0  0  0  0  0
  1 16  1  0  0  0  0
  1 15  1  0  0  0  0
  2  1  1  0  0  0  0
  2  3  1  0  0  0  0
  3  4  2  0  0  0  0
  4 17  1  0  0  0  0
  4  5  1  0  0  0  0
  5 18  1  0  0  0  0
  6  5  2  0  0  0  0
  6 13  1  0  0  0  0
  7  6  1  0  0  0  0
  8  7  2  0  0  0  0
  8  3  1  0  0  0  0
  9  8  1  0  0  0  0
 10 12  1  0  0  0  0
 10  7  1  0  0  0  0
 11 10  2  0  0  0  0
 14  1  1  0  0  0  0
 19  9  1  0  0  0  0
M  END
