313173152.xyz
 OpenBabel08132112093D
ClCC(=O)c1cc(OC(F)F)c(c(c1)S)Br
 22 22  0  0  0  0  0  0  0  0999 V2000
   -4.2003   -1.5493    2.7887 Cl  0  0  0  0  0  0  0  0  0  0  0  0
   -3.9966    0.0245    3.6504 C   0  0  0  0  0  0  0  0  0  0  0  0
   -2.7139    0.0390    4.4777 C   0  0  0  0  0  0  0  0  0  0  0  0
   -2.7894    0.1071    5.6861 O   0  0  0  0  0  0  0  0  0  0  0  0
   -1.3890    0.0000    3.7808 C   0  0  0  0  0  0  0  0  0  0  0  0
   -0.2403    0.0078    4.5853 C   0  0  0  0  0  0  0  0  0  0  0  0
    1.0135    0.0023    3.9905 C   0  0  0  0  0  0  0  0  0  0  0  0
    2.1618    0.0632    4.7577 O   0  0  0  0  0  0  0  0  0  0  0  0
    2.5129   -1.0302    5.5022 C   0  0  0  0  0  0  0  0  0  0  0  0
    2.5157   -2.1488    4.7498 F   0  0  0  0  0  0  0  0  0  0  0  0
    1.6413   -1.2427    6.5162 F   0  0  0  0  0  0  0  0  0  0  0  0
    1.1467    0.0000    2.5889 C   0  0  0  0  0  0  0  0  0  0  0  0
    0.0000    0.0000    1.7702 C   0  0  0  0  0  0  0  0  0  0  0  0
   -1.2615   -0.0049    2.3895 C   0  0  0  0  0  0  0  0  0  0  0  0
    0.0000    0.0000    0.0000 S   0  0  0  0  0  0  0  0  0  0  0  0
    2.8981   -0.0042    1.8597 Br  0  0  0  0  0  0  0  0  0  0  0  0
   -4.8426    0.1459    4.3354 H   0  0  0  0  0  0  0  0  0  0  0  0
   -4.0032    0.8219    2.8944 H   0  0  0  0  0  0  0  0  0  0  0  0
   -0.3405    0.0247    5.6689 H   0  0  0  0  0  0  0  0  0  0  0  0
    3.5163   -0.8438    5.9131 H   0  0  0  0  0  0  0  0  0  0  0  0
   -2.1455   -0.0387    1.7529 H   0  0  0  0  0  0  0  0  0  0  0  0
    1.3422   -0.0283   -0.1546 H   0  0  0  0  0  0  0  0  0  0  0  0
  1  2  1  0  0  0  0
  2 17  1  0  0  0  0
  2  3  1  0  0  0  0
  3  4  2  0  0  0  0
  5  3  1  0  0  0  0
  5  6  2  0  0  0  0
  6 19  1  0  0  0  0
  7  6  1  0  0  0  0
  7  8  1  0  0  0  0
  8  9  1  0  0  0  0
  9 20  1  0  0  0  0
  9 11  1  0  0  0  0
 10  9  1  0  0  0  0
 12  7  2  0  0  0  0
 13 14  2  0  0  0  0
 13 12  1  0  0  0  0
 14  5  1  0  0  0  0
 15 13  1  0  0  0  0
 16 12  1  0  0  0  0
 18  2  1  0  0  0  0
 21 14  1  0  0  0  0
 22 15  1  0  0  0  0
M  END
