313159350.xyz
 OpenBabel08132112093D
FC(c1c(S)ccc(c1Br)[N+](=O)[O-])F
 18 18  0  0  0  0  0  0  0  0999 V2000
   -2.6407    1.2299    1.2285 F   0  0  0  0  0  0  0  0  0  0  0  0
   -2.5274    0.1197    2.0077 C   0  0  0  0  0  0  0  0  0  0  0  0
   -1.1426    0.0304    2.6083 C   0  0  0  0  0  0  0  0  0  0  0  0
   -0.0000    0.0000    1.7686 C   0  0  0  0  0  0  0  0  0  0  0  0
    0.0000    0.0000    0.0000 S   0  0  0  0  0  0  0  0  0  0  0  0
    1.2838   -0.0000    2.3430 C   0  0  0  0  0  0  0  0  0  0  0  0
    1.4421    0.0099    3.7165 C   0  0  0  0  0  0  0  0  0  0  0  0
    0.3239   -0.0164    4.5519 C   0  0  0  0  0  0  0  0  0  0  0  0
   -0.9692    0.0080    4.0082 C   0  0  0  0  0  0  0  0  0  0  0  0
   -2.4852    0.1077    5.1611 Br  0  0  0  0  0  0  0  0  0  0  0  0
    0.6055   -0.0751    5.9980 N   0  0  0  0  0  0  0  0  0  0  0  0
   -0.1103   -0.7695    6.6952 O   0  0  0  0  0  0  0  0  0  0  0  0
    1.5762    0.5557    6.3866 O   0  0  0  0  0  0  0  0  0  0  0  0
   -2.7681   -0.9575    1.1962 F   0  0  0  0  0  0  0  0  0  0  0  0
   -3.3164    0.1489    2.7676 H   0  0  0  0  0  0  0  0  0  0  0  0
   -1.3119   -0.2232   -0.2047 H   0  0  0  0  0  0  0  0  0  0  0  0
    2.1623   -0.0147    1.6952 H   0  0  0  0  0  0  0  0  0  0  0  0
    2.4316    0.0239    4.1732 H   0  0  0  0  0  0  0  0  0  0  0  0
  1  2  1  0  0  0  0
  2  3  1  0  0  0  0
  2 15  1  0  0  0  0
  3  9  2  0  0  0  0
  4  6  2  0  0  0  0
  4  3  1  0  0  0  0
  5  4  1  0  0  0  0
  6  7  1  0  0  0  0
  7 18  1  0  0  0  0
  7  8  2  0  0  0  0
  8 11  1  0  0  0  0
  9  8  1  0  0  0  0
  9 10  1  0  0  0  0
 11 13  2  0  0  0  0
 11 12  2  0  0  0  0
 14  2  1  0  0  0  0
 16  5  1  0  0  0  0
 17  6  1  0  0  0  0
M  END
