313137639.xyz
 OpenBabel08132112093D
BrCC(=O)c1cc(S)c(c(c1)[N+](=O)[O-])Br
 20 20  0  0  0  0  0  0  0  0999 V2000
    4.3027   -1.7215    2.7985 Br  0  0  0  0  0  0  0  0  0  0  0  0
    4.0274    0.0536    3.5991 C   0  0  0  0  0  0  0  0  0  0  0  0
    2.7609    0.0704    4.4416 C   0  0  0  0  0  0  0  0  0  0  0  0
    2.8445    0.1332    5.6490 O   0  0  0  0  0  0  0  0  0  0  0  0
    1.4248    0.0325    3.7608 C   0  0  0  0  0  0  0  0  0  0  0  0
    1.2698    0.0000    2.3738 C   0  0  0  0  0  0  0  0  0  0  0  0
    0.0000    0.0000    1.7691 C   0  0  0  0  0  0  0  0  0  0  0  0
    0.0000    0.0000    0.0000 S   0  0  0  0  0  0  0  0  0  0  0  0
   -1.1467    0.0052    2.5951 C   0  0  0  0  0  0  0  0  0  0  0  0
   -0.9714    0.0234    3.9913 C   0  0  0  0  0  0  0  0  0  0  0  0
    0.2859    0.0586    4.5744 C   0  0  0  0  0  0  0  0  0  0  0  0
   -2.1152   -0.0030    4.9322 N   0  0  0  0  0  0  0  0  0  0  0  0
   -3.0210   -0.7800    4.6980 O   0  0  0  0  0  0  0  0  0  0  0  0
   -2.0395    0.7366    5.8973 O   0  0  0  0  0  0  0  0  0  0  0  0
   -2.8792    0.0606    1.8281 Br  0  0  0  0  0  0  0  0  0  0  0  0
    3.9998    0.7738    2.7720 H   0  0  0  0  0  0  0  0  0  0  0  0
    4.8838    0.2452    4.2528 H   0  0  0  0  0  0  0  0  0  0  0  0
    2.1430   -0.0396    1.7220 H   0  0  0  0  0  0  0  0  0  0  0  0
   -1.3416   -0.0358   -0.1570 H   0  0  0  0  0  0  0  0  0  0  0  0
    0.3909    0.1036    5.6577 H   0  0  0  0  0  0  0  0  0  0  0  0
  1  2  1  0  0  0  0
  2 17  1  0  0  0  0
  2  3  1  0  0  0  0
  3  4  2  0  0  0  0
  5  3  1  0  0  0  0
  5 11  2  0  0  0  0
  6  5  1  0  0  0  0
  7  6  2  0  0  0  0
  7  9  1  0  0  0  0
  8  7  1  0  0  0  0
  9 10  2  0  0  0  0
 10 11  1  0  0  0  0
 10 12  1  0  0  0  0
 11 20  1  0  0  0  0
 12 14  2  0  0  0  0
 13 12  2  0  0  0  0
 15  9  1  0  0  0  0
 16  2  1  0  0  0  0
 18  6  1  0  0  0  0
 19  8  1  0  0  0  0
M  END
