313154286.xyz
 OpenBabel08132112093D
COc1cc(OC(F)(F)F)c(c(c1)Br)S
 21 21  0  0  0  0  0  0  0  0999 V2000
   -0.9751    0.0068    6.7581 C   0  0  0  0  0  0  0  0  0  0  0  0
    0.1909   -0.0010    5.9634 O   0  0  0  0  0  0  0  0  0  0  0  0
    0.0634    0.0024    4.6175 C   0  0  0  0  0  0  0  0  0  0  0  0
   -1.1621   -0.0040    3.9413 C   0  0  0  0  0  0  0  0  0  0  0  0
   -1.1695    0.0105    2.5460 C   0  0  0  0  0  0  0  0  0  0  0  0
   -2.3952   -0.0250    1.8758 O   0  0  0  0  0  0  0  0  0  0  0  0
   -3.1876    1.0740    1.9096 C   0  0  0  0  0  0  0  0  0  0  0  0
   -4.1572    0.8963    1.0225 F   0  0  0  0  0  0  0  0  0  0  0  0
   -3.7496    1.2570    3.1168 F   0  0  0  0  0  0  0  0  0  0  0  0
   -2.5196    2.1906    1.6095 F   0  0  0  0  0  0  0  0  0  0  0  0
    0.0000   -0.0000    1.7722 C   0  0  0  0  0  0  0  0  0  0  0  0
    1.2146    0.0000    2.4899 C   0  0  0  0  0  0  0  0  0  0  0  0
    1.2567    0.0061    3.8784 C   0  0  0  0  0  0  0  0  0  0  0  0
    2.8601    0.0013    1.5349 Br  0  0  0  0  0  0  0  0  0  0  0  0
    0.0000    0.0000    0.0000 S   0  0  0  0  0  0  0  0  0  0  0  0
   -1.5932   -0.8920    6.5841 H   0  0  0  0  0  0  0  0  0  0  0  0
   -0.6407    0.0136    7.8034 H   0  0  0  0  0  0  0  0  0  0  0  0
   -1.5901    0.9048    6.5703 H   0  0  0  0  0  0  0  0  0  0  0  0
   -2.1144   -0.0174    4.4646 H   0  0  0  0  0  0  0  0  0  0  0  0
    2.2074    0.0085    4.4106 H   0  0  0  0  0  0  0  0  0  0  0  0
   -1.3333   -0.1847   -0.1154 H   0  0  0  0  0  0  0  0  0  0  0  0
  1 17  1  0  0  0  0
  2  1  1  0  0  0  0
  3  2  1  0  0  0  0
  4 19  1  0  0  0  0
  4  3  1  0  0  0  0
  5  4  2  0  0  0  0
  6  7  1  0  0  0  0
  6  5  1  0  0  0  0
  7  9  1  0  0  0  0
  8  7  1  0  0  0  0
 10  7  1  0  0  0  0
 11 12  2  0  0  0  0
 11  5  1  0  0  0  0
 12 13  1  0  0  0  0
 13 20  1  0  0  0  0
 13  3  2  0  0  0  0
 14 12  1  0  0  0  0
 15 11  1  0  0  0  0
 16  1  1  0  0  0  0
 18  1  1  0  0  0  0
 21 15  1  0  0  0  0
M  END
