313184472.xyz
 OpenBabel08132112093D
OC(=O)Cc1cc(OC(F)(F)F)c(c(c1)Br)S
 23 23  0  0  0  0  0  0  0  0999 V2000
    0.3591   -1.4005    7.9780 O   0  0  0  0  0  0  0  0  0  0  0  0
   -0.2631   -1.1213    6.8180 C   0  0  0  0  0  0  0  0  0  0  0  0
   -1.2408   -1.7140    6.4395 O   0  0  0  0  0  0  0  0  0  0  0  0
    0.3982    0.0491    6.1083 C   0  0  0  0  0  0  0  0  0  0  0  0
    0.2560    0.0256    4.6073 C   0  0  0  0  0  0  0  0  0  0  0  0
    1.3910    0.0209    3.7903 C   0  0  0  0  0  0  0  0  0  0  0  0
    1.2523    0.0000    2.4073 C   0  0  0  0  0  0  0  0  0  0  0  0
    2.3765    0.0406    1.5832 O   0  0  0  0  0  0  0  0  0  0  0  0
    3.1776   -1.0508    1.5197 C   0  0  0  0  0  0  0  0  0  0  0  0
    4.0551   -0.8525    0.5483 F   0  0  0  0  0  0  0  0  0  0  0  0
    3.8543   -1.2477    2.6659 F   0  0  0  0  0  0  0  0  0  0  0  0
    2.4910   -2.1693    1.2719 F   0  0  0  0  0  0  0  0  0  0  0  0
    0.0000   -0.0000    1.7674 C   0  0  0  0  0  0  0  0  0  0  0  0
   -1.1291    0.0127    2.6118 C   0  0  0  0  0  0  0  0  0  0  0  0
   -1.0058    0.0188    4.0012 C   0  0  0  0  0  0  0  0  0  0  0  0
   -2.8965    0.0188    1.8912 Br  0  0  0  0  0  0  0  0  0  0  0  0
    0.0000    0.0000    0.0000 S   0  0  0  0  0  0  0  0  0  0  0  0
   -0.1393   -2.1227    8.3993 H   0  0  0  0  0  0  0  0  0  0  0  0
    1.4540    0.0941    6.4073 H   0  0  0  0  0  0  0  0  0  0  0  0
   -0.0774    0.9556    6.5262 H   0  0  0  0  0  0  0  0  0  0  0  0
    2.3929    0.0343    4.2191 H   0  0  0  0  0  0  0  0  0  0  0  0
   -1.9043    0.0055    4.6161 H   0  0  0  0  0  0  0  0  0  0  0  0
   -1.3438   -0.0916   -0.1179 H   0  0  0  0  0  0  0  0  0  0  0  0
  1 18  1  0  0  0  0
  2  1  1  0  0  0  0
  3  2  2  0  0  0  0
  4 19  1  0  0  0  0
  4 20  1  0  0  0  0
  4  2  1  0  0  0  0
  5  4  1  0  0  0  0
  6 21  1  0  0  0  0
  6  5  2  0  0  0  0
  7  6  1  0  0  0  0
  8  7  1  0  0  0  0
  9  8  1  0  0  0  0
  9 11  1  0  0  0  0
 10  9  1  0  0  0  0
 12  9  1  0  0  0  0
 13  7  2  0  0  0  0
 13 14  1  0  0  0  0
 14 15  2  0  0  0  0
 15  5  1  0  0  0  0
 15 22  1  0  0  0  0
 16 14  1  0  0  0  0
 17 13  1  0  0  0  0
 23 17  1  0  0  0  0
M  END
