313198616.xyz
 OpenBabel08132112093D
FC(Oc1ccc(c(c1C(F)F)Cl)S)F
 20 20  0  0  0  0  0  0  0  0999 V2000
   -2.4135    0.0438    6.6462 F   0  0  0  0  0  0  0  0  0  0  0  0
   -1.2461    0.7304    6.5832 C   0  0  0  0  0  0  0  0  0  0  0  0
   -0.2831   -0.0144    5.9526 O   0  0  0  0  0  0  0  0  0  0  0  0
   -0.2220    0.0065    4.5740 C   0  0  0  0  0  0  0  0  0  0  0  0
   -1.3761   -0.0103    3.7860 C   0  0  0  0  0  0  0  0  0  0  0  0
   -1.2548   -0.0038    2.4024 C   0  0  0  0  0  0  0  0  0  0  0  0
    0.0000    0.0000    1.7708 C   0  0  0  0  0  0  0  0  0  0  0  0
    1.1497   -0.0000    2.5865 C   0  0  0  0  0  0  0  0  0  0  0  0
    1.0532    0.0090    3.9900 C   0  0  0  0  0  0  0  0  0  0  0  0
    2.2707    0.0276    4.8886 C   0  0  0  0  0  0  0  0  0  0  0  0
    3.0263    1.1341    4.6509 F   0  0  0  0  0  0  0  0  0  0  0  0
    3.0530   -1.0615    4.6681 F   0  0  0  0  0  0  0  0  0  0  0  0
    2.7303   -0.0019    1.8454 Cl  0  0  0  0  0  0  0  0  0  0  0  0
    0.0000    0.0000    0.0000 S   0  0  0  0  0  0  0  0  0  0  0  0
   -0.8265    0.9344    7.8346 F   0  0  0  0  0  0  0  0  0  0  0  0
   -1.4336    1.6936    6.0749 H   0  0  0  0  0  0  0  0  0  0  0  0
   -2.3591   -0.0518    4.2537 H   0  0  0  0  0  0  0  0  0  0  0  0
   -2.1568   -0.0171    1.7867 H   0  0  0  0  0  0  0  0  0  0  0  0
    1.9789    0.0328    5.9475 H   0  0  0  0  0  0  0  0  0  0  0  0
    1.3417   -0.0272   -0.1487 H   0  0  0  0  0  0  0  0  0  0  0  0
  2  1  1  0  0  0  0
  2 15  1  0  0  0  0
  3  2  1  0  0  0  0
  4  3  1  0  0  0  0
  5 17  1  0  0  0  0
  5  4  2  0  0  0  0
  6  5  1  0  0  0  0
  7  6  2  0  0  0  0
  7  8  1  0  0  0  0
  8  9  2  0  0  0  0
  9  4  1  0  0  0  0
  9 10  1  0  0  0  0
 10 19  1  0  0  0  0
 11 10  1  0  0  0  0
 12 10  1  0  0  0  0
 13  8  1  0  0  0  0
 14  7  1  0  0  0  0
 16  2  1  0  0  0  0
 18  6  1  0  0  0  0
 20 14  1  0  0  0  0
M  END
