313157549.xyz
 OpenBabel08132112093D
FC(Oc1cc(F)c(c(c1)Br)S)F
 17 17  0  0  0  0  0  0  0  0999 V2000
    0.2026    0.7985    7.9413 F   0  0  0  0  0  0  0  0  0  0  0  0
   -0.4008    0.5939    6.7686 C   0  0  0  0  0  0  0  0  0  0  0  0
    0.5163    0.0012    5.9424 O   0  0  0  0  0  0  0  0  0  0  0  0
    0.2937    0.0095    4.5857 C   0  0  0  0  0  0  0  0  0  0  0  0
    1.4300    0.0110    3.7711 C   0  0  0  0  0  0  0  0  0  0  0  0
    1.2604   -0.0000    2.3979 C   0  0  0  0  0  0  0  0  0  0  0  0
    2.3434    0.0014    1.6129 F   0  0  0  0  0  0  0  0  0  0  0  0
    0.0000   -0.0000    1.7697 C   0  0  0  0  0  0  0  0  0  0  0  0
   -1.1140   -0.0025    2.6265 C   0  0  0  0  0  0  0  0  0  0  0  0
   -0.9827   -0.0088    4.0210 C   0  0  0  0  0  0  0  0  0  0  0  0
   -2.8874   -0.0170    1.9283 Br  0  0  0  0  0  0  0  0  0  0  0  0
    0.0000    0.0000    0.0000 S   0  0  0  0  0  0  0  0  0  0  0  0
   -1.4560   -0.2322    6.9855 F   0  0  0  0  0  0  0  0  0  0  0  0
   -0.7848    1.5462    6.3590 H   0  0  0  0  0  0  0  0  0  0  0  0
    2.4297    0.0226    4.2045 H   0  0  0  0  0  0  0  0  0  0  0  0
   -1.8719   -0.0577    4.6461 H   0  0  0  0  0  0  0  0  0  0  0  0
   -1.3464   -0.0141   -0.1188 H   0  0  0  0  0  0  0  0  0  0  0  0
  2 13  1  0  0  0  0
  2  1  1  0  0  0  0
  3  2  1  0  0  0  0
  4  3  1  0  0  0  0
  5 15  1  0  0  0  0
  5  4  2  0  0  0  0
  6  5  1  0  0  0  0
  7  6  1  0  0  0  0
  8  6  2  0  0  0  0
  8  9  1  0  0  0  0
  9 10  2  0  0  0  0
 10  4  1  0  0  0  0
 10 16  1  0  0  0  0
 11  9  1  0  0  0  0
 12  8  1  0  0  0  0
 14  2  1  0  0  0  0
 17 12  1  0  0  0  0
M  END
