313189075.xyz
 OpenBabel08132112093D
COc1c(Br)ccc(c1S)C(=O)N
 21 21  0  0  0  0  0  0  0  0999 V2000
   -2.9624   -1.3299    1.4323 C   0  0  0  0  0  0  0  0  0  0  0  0
   -2.4029   -0.0428    1.7023 O   0  0  0  0  0  0  0  0  0  0  0  0
   -1.2550   -0.0495    2.4424 C   0  0  0  0  0  0  0  0  0  0  0  0
   -1.3041   -0.0672    3.8425 C   0  0  0  0  0  0  0  0  0  0  0  0
   -2.9908   -0.0611    4.7202 Br  0  0  0  0  0  0  0  0  0  0  0  0
   -0.1332   -0.0843    4.6026 C   0  0  0  0  0  0  0  0  0  0  0  0
    1.0925   -0.0699    3.9495 C   0  0  0  0  0  0  0  0  0  0  0  0
    1.1877   -0.0000    2.5512 C   0  0  0  0  0  0  0  0  0  0  0  0
    0.0000   -0.0000    1.7882 C   0  0  0  0  0  0  0  0  0  0  0  0
    0.0000    0.0000    0.0000 S   0  0  0  0  0  0  0  0  0  0  0  0
    2.6094    0.0362    2.0249 C   0  0  0  0  0  0  0  0  0  0  0  0
    3.5197   -0.4474    2.6774 O   0  0  0  0  0  0  0  0  0  0  0  0
    2.8234    0.6624    0.8373 N   0  0  0  0  0  0  0  0  0  0  0  0
   -3.8721   -1.1593    0.8418 H   0  0  0  0  0  0  0  0  0  0  0  0
   -3.2290   -1.8461    2.3678 H   0  0  0  0  0  0  0  0  0  0  0  0
   -2.2567   -1.9504    0.8548 H   0  0  0  0  0  0  0  0  0  0  0  0
   -0.1904   -0.1095    5.6911 H   0  0  0  0  0  0  0  0  0  0  0  0
    2.0257   -0.1056    4.5127 H   0  0  0  0  0  0  0  0  0  0  0  0
   -1.2927    0.3902   -0.0864 H   0  0  0  0  0  0  0  0  0  0  0  0
    3.7777    0.7010    0.4998 H   0  0  0  0  0  0  0  0  0  0  0  0
    2.0881    1.1271    0.3186 H   0  0  0  0  0  0  0  0  0  0  0  0
  1  2  1  0  0  0  0
  1 15  1  0  0  0  0
  2  3  1  0  0  0  0
  3  4  1  0  0  0  0
  4  6  2  0  0  0  0
  4  5  1  0  0  0  0
  6 17  1  0  0  0  0
  7 18  1  0  0  0  0
  7  6  1  0  0  0  0
  8  7  2  0  0  0  0
  9  3  2  0  0  0  0
  9  8  1  0  0  0  0
 10  9  1  0  0  0  0
 11  8  1  0  0  0  0
 11 12  2  0  0  0  0
 13 11  1  0  0  0  0
 14  1  1  0  0  0  0
 16  1  1  0  0  0  0
 19 10  1  0  0  0  0
 20 13  1  0  0  0  0
 21 13  1  0  0  0  0
M  END
