313186186.xyz
 OpenBabel08132112093D
FC(Oc1cc(Br)c(cc1S)Cl)F
 17 17  0  0  0  0  0  0  0  0999 V2000
   -4.1153   -0.1451    3.2553 F   0  0  0  0  0  0  0  0  0  0  0  0
   -3.4109   -0.7776    2.2863 C   0  0  0  0  0  0  0  0  0  0  0  0
   -2.3792    0.0136    1.8480 O   0  0  0  0  0  0  0  0  0  0  0  0
   -1.1831   -0.0115    2.5345 C   0  0  0  0  0  0  0  0  0  0  0  0
   -1.1350   -0.0107    3.9278 C   0  0  0  0  0  0  0  0  0  0  0  0
    0.0956   -0.0287    4.5915 C   0  0  0  0  0  0  0  0  0  0  0  0
    0.1098   -0.0441    6.4855 Br  0  0  0  0  0  0  0  0  0  0  0  0
    1.2827   -0.0221    3.8439 C   0  0  0  0  0  0  0  0  0  0  0  0
    1.2244   -0.0000    2.4477 C   0  0  0  0  0  0  0  0  0  0  0  0
   -0.0000    0.0000    1.7699 C   0  0  0  0  0  0  0  0  0  0  0  0
    0.0000    0.0000    0.0000 S   0  0  0  0  0  0  0  0  0  0  0  0
    2.8413   -0.0352    4.6109 Cl  0  0  0  0  0  0  0  0  0  0  0  0
   -4.2278   -0.9660    1.2457 F   0  0  0  0  0  0  0  0  0  0  0  0
   -3.0577   -1.7461    2.6839 H   0  0  0  0  0  0  0  0  0  0  0  0
   -2.0594    0.0215    4.5029 H   0  0  0  0  0  0  0  0  0  0  0  0
    2.1591    0.0091    1.8853 H   0  0  0  0  0  0  0  0  0  0  0  0
   -1.3416    0.0781   -0.1344 H   0  0  0  0  0  0  0  0  0  0  0  0
  2 14  1  0  0  0  0
  2  1  1  0  0  0  0
  3  2  1  0  0  0  0
  3  4  1  0  0  0  0
  4  5  2  0  0  0  0
  5 15  1  0  0  0  0
  5  6  1  0  0  0  0
  6  7  1  0  0  0  0
  8  6  2  0  0  0  0
  8 12  1  0  0  0  0
  9  8  1  0  0  0  0
 10  9  2  0  0  0  0
 10  4  1  0  0  0  0
 11 10  1  0  0  0  0
 13  2  1  0  0  0  0
 16  9  1  0  0  0  0
 17 11  1  0  0  0  0
M  END
