313171410.xyz
 OpenBabel08132112093D
Brc1ccc(c(c1OC(F)(F)F)I)S
 17 17  0  0  0  0  0  0  0  0999 V2000
   -0.5311   -0.2785    6.4507 Br  0  0  0  0  0  0  0  0  0  0  0  0
   -0.2948   -0.0805    4.5800 C   0  0  0  0  0  0  0  0  0  0  0  0
   -1.4204   -0.0886    3.7512 C   0  0  0  0  0  0  0  0  0  0  0  0
   -1.2718   -0.0254    2.3737 C   0  0  0  0  0  0  0  0  0  0  0  0
    0.0000   -0.0000    1.7694 C   0  0  0  0  0  0  0  0  0  0  0  0
    1.1337   -0.0000    2.6070 C   0  0  0  0  0  0  0  0  0  0  0  0
    0.9822    0.0090    4.0085 C   0  0  0  0  0  0  0  0  0  0  0  0
    2.1024    0.0068    4.8188 O   0  0  0  0  0  0  0  0  0  0  0  0
    2.5990    1.1923    5.2780 C   0  0  0  0  0  0  0  0  0  0  0  0
    3.7115    0.9191    5.9390 F   0  0  0  0  0  0  0  0  0  0  0  0
    1.7506    1.8205    6.0955 F   0  0  0  0  0  0  0  0  0  0  0  0
    2.8773    2.0428    4.2833 F   0  0  0  0  0  0  0  0  0  0  0  0
    3.0992   -0.1331    1.8095 I   0  0  0  0  0  0  0  0  0  0  0  0
    0.0000    0.0000    0.0000 S   0  0  0  0  0  0  0  0  0  0  0  0
   -2.4140   -0.1479    4.1962 H   0  0  0  0  0  0  0  0  0  0  0  0
   -2.1600   -0.0180    1.7381 H   0  0  0  0  0  0  0  0  0  0  0  0
    1.3334    0.1639   -0.1603 H   0  0  0  0  0  0  0  0  0  0  0  0
  2  1  1  0  0  0  0
  3 15  1  0  0  0  0
  3  2  2  0  0  0  0
  4  3  1  0  0  0  0
  5  4  2  0  0  0  0
  5  6  1  0  0  0  0
  6  7  2  0  0  0  0
  7  2  1  0  0  0  0
  7  8  1  0  0  0  0
  8  9  1  0  0  0  0
  9 10  1  0  0  0  0
  9 11  1  0  0  0  0
 12  9  1  0  0  0  0
 13  6  1  0  0  0  0
 14  5  1  0  0  0  0
 16  4  1  0  0  0  0
 17 14  1  0  0  0  0
M  END
