313193686.xyz
 OpenBabel08132112093D
Brc1cc(S)c(c(c1)C(=O)C)C
 21 21  0  0  0  0  0  0  0  0999 V2000
   -2.8185   -0.0278    4.8575 Br  0  0  0  0  0  0  0  0  0  0  0  0
   -1.1760   -0.0076    3.8917 C   0  0  0  0  0  0  0  0  0  0  0  0
   -1.2050    0.0095    2.4986 C   0  0  0  0  0  0  0  0  0  0  0  0
   -0.0000    0.0000    1.7839 C   0  0  0  0  0  0  0  0  0  0  0  0
    0.0000    0.0000    0.0000 S   0  0  0  0  0  0  0  0  0  0  0  0
    1.2480   -0.0000    2.4516 C   0  0  0  0  0  0  0  0  0  0  0  0
    1.2393    0.0330    3.8634 C   0  0  0  0  0  0  0  0  0  0  0  0
    0.0314   -0.0035    4.5788 C   0  0  0  0  0  0  0  0  0  0  0  0
    2.4718    0.1250    4.7365 C   0  0  0  0  0  0  0  0  0  0  0  0
    2.4748   -0.3989    5.8311 O   0  0  0  0  0  0  0  0  0  0  0  0
    3.6574    0.9667    4.2942 C   0  0  0  0  0  0  0  0  0  0  0  0
    2.5114   -0.0886    1.6325 C   0  0  0  0  0  0  0  0  0  0  0  0
   -2.1627    0.0204    1.9769 H   0  0  0  0  0  0  0  0  0  0  0  0
   -1.3388   -0.1095   -0.1427 H   0  0  0  0  0  0  0  0  0  0  0  0
    0.0662   -0.0186    5.6675 H   0  0  0  0  0  0  0  0  0  0  0  0
    4.0747    1.4479    5.1897 H   0  0  0  0  0  0  0  0  0  0  0  0
    4.4445    0.3192    3.8763 H   0  0  0  0  0  0  0  0  0  0  0  0
    3.3965    1.7233    3.5426 H   0  0  0  0  0  0  0  0  0  0  0  0
    2.3538   -0.7441    0.7621 H   0  0  0  0  0  0  0  0  0  0  0  0
    2.8179    0.8963    1.2401 H   0  0  0  0  0  0  0  0  0  0  0  0
    3.3502   -0.5037    2.2006 H   0  0  0  0  0  0  0  0  0  0  0  0
  2  8  1  0  0  0  0
  2  1  1  0  0  0  0
  3  2  2  0  0  0  0
  4  6  2  0  0  0  0
  4  3  1  0  0  0  0
  5  4  1  0  0  0  0
  6  7  1  0  0  0  0
  7  8  2  0  0  0  0
  7  9  1  0  0  0  0
  8 15  1  0  0  0  0
  9 10  2  0  0  0  0
 11  9  1  0  0  0  0
 11 16  1  0  0  0  0
 12 21  1  0  0  0  0
 12  6  1  0  0  0  0
 13  3  1  0  0  0  0
 14  5  1  0  0  0  0
 17 11  1  0  0  0  0
 18 11  1  0  0  0  0
 19 12  1  0  0  0  0
 20 12  1  0  0  0  0
M  END
