313129166.xyz
 OpenBabel08132112093D
Cc1ccc(c(c1)N)S
 18 18  0  0  0  0  0  0  0  0999 V2000
    0.0751    0.1856    6.1142 C   0  0  0  0  0  0  0  0  0  0  0  0
    0.0488    0.1361    4.6073 C   0  0  0  0  0  0  0  0  0  0  0  0
    1.2482    0.0722    3.8771 C   0  0  0  0  0  0  0  0  0  0  0  0
    1.2143    0.0000    2.4868 C   0  0  0  0  0  0  0  0  0  0  0  0
    0.0000   -0.0000    1.7913 C   0  0  0  0  0  0  0  0  0  0  0  0
   -1.2198    0.0767    2.5065 C   0  0  0  0  0  0  0  0  0  0  0  0
   -1.1627    0.1365    3.9138 C   0  0  0  0  0  0  0  0  0  0  0  0
   -2.4300    0.0428    1.8430 N   0  0  0  0  0  0  0  0  0  0  0  0
    0.0000    0.0000    0.0000 S   0  0  0  0  0  0  0  0  0  0  0  0
    0.7935    0.9383    6.4761 H   0  0  0  0  0  0  0  0  0  0  0  0
    0.3876   -0.7855    6.5347 H   0  0  0  0  0  0  0  0  0  0  0  0
   -0.9133    0.4274    6.5317 H   0  0  0  0  0  0  0  0  0  0  0  0
    2.2074    0.0746    4.4002 H   0  0  0  0  0  0  0  0  0  0  0  0
    2.1425   -0.0577    1.9142 H   0  0  0  0  0  0  0  0  0  0  0  0
   -2.1018    0.1903    4.4728 H   0  0  0  0  0  0  0  0  0  0  0  0
   -3.2317    0.3959    2.3519 H   0  0  0  0  0  0  0  0  0  0  0  0
   -2.3887    0.3344    0.8696 H   0  0  0  0  0  0  0  0  0  0  0  0
   -0.5906   -1.2100   -0.1771 H   0  0  0  0  0  0  0  0  0  0  0  0
  1 10  1  0  0  0  0
  1 12  1  0  0  0  0
  1 11  1  0  0  0  0
  2  1  1  0  0  0  0
  3 13  1  0  0  0  0
  3  2  2  0  0  0  0
  4  3  1  0  0  0  0
  5  4  2  0  0  0  0
  5  6  1  0  0  0  0
  6  7  2  0  0  0  0
  7 15  1  0  0  0  0
  7  2  1  0  0  0  0
  8 16  1  0  0  0  0
  8  6  1  0  0  0  0
  9  5  1  0  0  0  0
 14  4  1  0  0  0  0
 17  8  1  0  0  0  0
 18  9  1  0  0  0  0
M  END
