313196761.xyz
 OpenBabel08132112093D
FC(c1cc(Br)c(cc1Br)S)F
 16 16  0  0  0  0  0  0  0  0999 V2000
   -0.6592   -1.2790    6.5306 F   0  0  0  0  0  0  0  0  0  0  0  0
   -0.3314   -0.0281    6.1058 C   0  0  0  0  0  0  0  0  0  0  0  0
   -0.2355    0.0062    4.5999 C   0  0  0  0  0  0  0  0  0  0  0  0
    1.0169    0.0027    3.9828 C   0  0  0  0  0  0  0  0  0  0  0  0
    1.1411   -0.0000    2.5935 C   0  0  0  0  0  0  0  0  0  0  0  0
    2.9045   -0.0014    1.8674 Br  0  0  0  0  0  0  0  0  0  0  0  0
   -0.0000    0.0000    1.7669 C   0  0  0  0  0  0  0  0  0  0  0  0
   -1.2608    0.0043    2.3928 C   0  0  0  0  0  0  0  0  0  0  0  0
   -1.3735    0.0049    3.7789 C   0  0  0  0  0  0  0  0  0  0  0  0
   -3.1224    0.0096    4.5381 Br  0  0  0  0  0  0  0  0  0  0  0  0
    0.0000    0.0000    0.0000 S   0  0  0  0  0  0  0  0  0  0  0  0
    0.8660    0.2905    6.6657 F   0  0  0  0  0  0  0  0  0  0  0  0
   -1.0923    0.6702    6.4915 H   0  0  0  0  0  0  0  0  0  0  0  0
    1.9102    0.0101    4.6064 H   0  0  0  0  0  0  0  0  0  0  0  0
   -2.1632    0.0066    1.7797 H   0  0  0  0  0  0  0  0  0  0  0  0
    1.3438   -0.0054   -0.1478 H   0  0  0  0  0  0  0  0  0  0  0  0
  2 13  1  0  0  0  0
  2  1  1  0  0  0  0
  2 12  1  0  0  0  0
  3  2  1  0  0  0  0
  4  3  1  0  0  0  0
  4 14  1  0  0  0  0
  5  4  2  0  0  0  0
  6  5  1  0  0  0  0
  7  8  2  0  0  0  0
  7  5  1  0  0  0  0
  8  9  1  0  0  0  0
  9 10  1  0  0  0  0
  9  3  2  0  0  0  0
 11  7  1  0  0  0  0
 15  8  1  0  0  0  0
 16 11  1  0  0  0  0
M  END
