313176512.xyz
 OpenBabel08132112093D
CCOc1cc(Br)c(cc1S)[N+](=O)[O-]
 22 22  0  0  0  0  0  0  0  0999 V2000
   -4.7017    0.0005    1.4576 C   0  0  0  0  0  0  0  0  0  0  0  0
   -3.6084   -0.0052    2.5045 C   0  0  0  0  0  0  0  0  0  0  0  0
   -2.3534   -0.0051    1.8273 O   0  0  0  0  0  0  0  0  0  0  0  0
   -1.2013   -0.0010    2.5264 C   0  0  0  0  0  0  0  0  0  0  0  0
   -1.1430   -0.0052    3.9236 C   0  0  0  0  0  0  0  0  0  0  0  0
    0.0822    0.0143    4.6019 C   0  0  0  0  0  0  0  0  0  0  0  0
    0.0055   -0.0523    6.4949 Br  0  0  0  0  0  0  0  0  0  0  0  0
    1.2649    0.0226    3.8512 C   0  0  0  0  0  0  0  0  0  0  0  0
    1.2114   -0.0000    2.4524 C   0  0  0  0  0  0  0  0  0  0  0  0
   -0.0000   -0.0000    1.7704 C   0  0  0  0  0  0  0  0  0  0  0  0
    0.0000    0.0000    0.0000 S   0  0  0  0  0  0  0  0  0  0  0  0
    2.6114    0.0553    4.4467 N   0  0  0  0  0  0  0  0  0  0  0  0
    2.7463    0.5884    5.5330 O   0  0  0  0  0  0  0  0  0  0  0  0
    3.5164   -0.4386    3.7902 O   0  0  0  0  0  0  0  0  0  0  0  0
   -4.6268    0.8956    0.8219 H   0  0  0  0  0  0  0  0  0  0  0  0
   -4.6305   -0.8906    0.8158 H   0  0  0  0  0  0  0  0  0  0  0  0
   -5.6888    0.0008    1.9440 H   0  0  0  0  0  0  0  0  0  0  0  0
   -3.6739    0.8852    3.1550 H   0  0  0  0  0  0  0  0  0  0  0  0
   -3.6777   -0.9001    3.1484 H   0  0  0  0  0  0  0  0  0  0  0  0
   -2.0558   -0.0290    4.5144 H   0  0  0  0  0  0  0  0  0  0  0  0
    2.1566   -0.0174    1.9101 H   0  0  0  0  0  0  0  0  0  0  0  0
   -1.3441   -0.0130   -0.1248 H   0  0  0  0  0  0  0  0  0  0  0  0
  1 17  1  0  0  0  0
  1  2  1  0  0  0  0
  2 19  1  0  0  0  0
  2 18  1  0  0  0  0
  3  2  1  0  0  0  0
  3  4  1  0  0  0  0
  4  5  2  0  0  0  0
  5 20  1  0  0  0  0
  5  6  1  0  0  0  0
  6  7  1  0  0  0  0
  8 12  1  0  0  0  0
  8  6  2  0  0  0  0
  9  8  1  0  0  0  0
 10  9  2  0  0  0  0
 10  4  1  0  0  0  0
 11 10  1  0  0  0  0
 12 13  2  0  0  0  0
 14 12  2  0  0  0  0
 15  1  1  0  0  0  0
 16  1  1  0  0  0  0
 21  9  1  0  0  0  0
 22 11  1  0  0  0  0
M  END
