313144782.xyz
 OpenBabel08132112093D
CCOc1cc(CC#N)c(cc1S)Br
 24 24  0  0  0  0  0  0  0  0999 V2000
   -4.7037   -0.0523    1.4492 C   0  0  0  0  0  0  0  0  0  0  0  0
   -3.6064   -0.0301    2.4927 C   0  0  0  0  0  0  0  0  0  0  0  0
   -2.3573   -0.0011    1.8149 O   0  0  0  0  0  0  0  0  0  0  0  0
   -1.2014    0.0031    2.5219 C   0  0  0  0  0  0  0  0  0  0  0  0
   -1.1382    0.0121    3.9173 C   0  0  0  0  0  0  0  0  0  0  0  0
    0.0863    0.0175    4.6032 C   0  0  0  0  0  0  0  0  0  0  0  0
    0.0914    0.0100    6.1191 C   0  0  0  0  0  0  0  0  0  0  0  0
    0.2635   -1.3350    6.6811 C   0  0  0  0  0  0  0  0  0  0  0  0
    0.3858   -2.4014    7.1158 N   0  0  0  0  0  0  0  0  0  0  0  0
    1.2623    0.0049    3.8460 C   0  0  0  0  0  0  0  0  0  0  0  0
    1.2210    0.0000    2.4494 C   0  0  0  0  0  0  0  0  0  0  0  0
   -0.0000    0.0000    1.7718 C   0  0  0  0  0  0  0  0  0  0  0  0
    0.0000    0.0000    0.0000 S   0  0  0  0  0  0  0  0  0  0  0  0
    2.9704   -0.0139    4.6976 Br  0  0  0  0  0  0  0  0  0  0  0  0
   -4.6132   -0.9434    0.8098 H   0  0  0  0  0  0  0  0  0  0  0  0
   -4.6497    0.8418    0.8099 H   0  0  0  0  0  0  0  0  0  0  0  0
   -5.6899   -0.0727    1.9370 H   0  0  0  0  0  0  0  0  0  0  0  0
   -3.6966    0.8596    3.1428 H   0  0  0  0  0  0  0  0  0  0  0  0
   -3.6563   -0.9246    3.1400 H   0  0  0  0  0  0  0  0  0  0  0  0
   -2.0572    0.0137    4.5028 H   0  0  0  0  0  0  0  0  0  0  0  0
   -0.8574    0.4193    6.4996 H   0  0  0  0  0  0  0  0  0  0  0  0
    0.9012    0.6480    6.5059 H   0  0  0  0  0  0  0  0  0  0  0  0
    2.1533   -0.0067    1.8830 H   0  0  0  0  0  0  0  0  0  0  0  0
   -1.3438   -0.0342   -0.1238 H   0  0  0  0  0  0  0  0  0  0  0  0
  1 17  1  0  0  0  0
  1  2  1  0  0  0  0
  2 19  1  0  0  0  0
  2 18  1  0  0  0  0
  3  2  1  0  0  0  0
  3  4  1  0  0  0  0
  4  5  2  0  0  0  0
  5 20  1  0  0  0  0
  5  6  1  0  0  0  0
  6  7  1  0  0  0  0
  7 21  1  0  0  0  0
  7 22  1  0  0  0  0
  7  8  1  0  0  0  0
  8  9  3  0  0  0  0
 10  6  2  0  0  0  0
 10 14  1  0  0  0  0
 11 10  1  0  0  0  0
 12 11  2  0  0  0  0
 12  4  1  0  0  0  0
 13 12  1  0  0  0  0
 15  1  1  0  0  0  0
 16  1  1  0  0  0  0
 23 11  1  0  0  0  0
 24 13  1  0  0  0  0
M  END
