313197391.xyz
 OpenBabel08132112093D
Clc1cc(S)c(c(c1)C(=O)C)C(F)F
 21 21  0  0  0  0  0  0  0  0999 V2000
   -3.0419    0.1001    4.4108 Cl  0  0  0  0  0  0  0  0  0  0  0  0
   -1.4410    0.0606    3.7223 C   0  0  0  0  0  0  0  0  0  0  0  0
   -1.2860    0.0235    2.3427 C   0  0  0  0  0  0  0  0  0  0  0  0
   -0.0000    0.0000    1.7769 C   0  0  0  0  0  0  0  0  0  0  0  0
    0.0000    0.0000    0.0000 S   0  0  0  0  0  0  0  0  0  0  0  0
    1.1422    0.0000    2.6132 C   0  0  0  0  0  0  0  0  0  0  0  0
    0.9603    0.0006    4.0197 C   0  0  0  0  0  0  0  0  0  0  0  0
   -0.3309    0.0506    4.5636 C   0  0  0  0  0  0  0  0  0  0  0  0
    2.1123   -0.0987    4.9950 C   0  0  0  0  0  0  0  0  0  0  0  0
    3.1818   -0.5809    4.6782 O   0  0  0  0  0  0  0  0  0  0  0  0
    1.8947    0.4027    6.4107 C   0  0  0  0  0  0  0  0  0  0  0  0
    2.5257    0.0822    2.0033 C   0  0  0  0  0  0  0  0  0  0  0  0
    2.6124    1.1789    1.1946 F   0  0  0  0  0  0  0  0  0  0  0  0
    2.7645   -1.0106    1.2069 F   0  0  0  0  0  0  0  0  0  0  0  0
   -2.1665    0.0061    1.6986 H   0  0  0  0  0  0  0  0  0  0  0  0
    1.2756   -0.3885   -0.1888 H   0  0  0  0  0  0  0  0  0  0  0  0
   -0.4887    0.0576    5.6396 H   0  0  0  0  0  0  0  0  0  0  0  0
    1.4139    1.3921    6.4281 H   0  0  0  0  0  0  0  0  0  0  0  0
    1.2472   -0.2917    6.9703 H   0  0  0  0  0  0  0  0  0  0  0  0
    2.8698    0.4438    6.9115 H   0  0  0  0  0  0  0  0  0  0  0  0
    3.3246    0.1285    2.7459 H   0  0  0  0  0  0  0  0  0  0  0  0
  2  1  1  0  0  0  0
  2  8  2  0  0  0  0
  3  2  1  0  0  0  0
  4  3  2  0  0  0  0
  4  6  1  0  0  0  0
  5  4  1  0  0  0  0
  6  7  2  0  0  0  0
  7  8  1  0  0  0  0
  7  9  1  0  0  0  0
  8 17  1  0  0  0  0
  9 11  1  0  0  0  0
 10  9  2  0  0  0  0
 11 18  1  0  0  0  0
 11 20  1  0  0  0  0
 11 19  1  0  0  0  0
 12  6  1  0  0  0  0
 12 21  1  0  0  0  0
 13 12  1  0  0  0  0
 14 12  1  0  0  0  0
 15  3  1  0  0  0  0
 16  5  1  0  0  0  0
M  END
