313196190.xyz
 OpenBabel08132112093D
OCc1c(S)ccc(c1C#N)Br
 18 18  0  0  0  0  0  0  0  0999 V2000
    2.7040    1.2000    1.1290 O   0  0  0  0  0  0  0  0  0  0  0  0
    2.5328   -0.0122    1.8556 C   0  0  0  0  0  0  0  0  0  0  0  0
    1.1878    0.0000    2.5377 C   0  0  0  0  0  0  0  0  0  0  0  0
    0.0000    0.0000    1.7793 C   0  0  0  0  0  0  0  0  0  0  0  0
    0.0000    0.0000    0.0000 S   0  0  0  0  0  0  0  0  0  0  0  0
   -1.2425   -0.0510    2.4289 C   0  0  0  0  0  0  0  0  0  0  0  0
   -1.3276   -0.0973    3.8174 C   0  0  0  0  0  0  0  0  0  0  0  0
   -0.1628   -0.0710    4.5823 C   0  0  0  0  0  0  0  0  0  0  0  0
    1.0964   -0.0147    3.9502 C   0  0  0  0  0  0  0  0  0  0  0  0
    2.2957    0.0066    4.7383 C   0  0  0  0  0  0  0  0  0  0  0  0
    3.2819    0.0219    5.3503 N   0  0  0  0  0  0  0  0  0  0  0  0
   -0.2931   -0.1050    6.4732 Br  0  0  0  0  0  0  0  0  0  0  0  0
    3.5737    1.1775    0.7074 H   0  0  0  0  0  0  0  0  0  0  0  0
    3.3339   -0.1398    2.5998 H   0  0  0  0  0  0  0  0  0  0  0  0
    2.5548   -0.8851    1.1729 H   0  0  0  0  0  0  0  0  0  0  0  0
    1.1257    0.7473   -0.1185 H   0  0  0  0  0  0  0  0  0  0  0  0
   -2.1572   -0.0428    1.8325 H   0  0  0  0  0  0  0  0  0  0  0  0
   -2.2993   -0.1375    4.3106 H   0  0  0  0  0  0  0  0  0  0  0  0
  1  2  1  0  0  0  0
  2  3  1  0  0  0  0
  2 14  1  0  0  0  0
  3  9  2  0  0  0  0
  4  6  2  0  0  0  0
  4  3  1  0  0  0  0
  5  4  1  0  0  0  0
  6  7  1  0  0  0  0
  7 18  1  0  0  0  0
  7  8  2  0  0  0  0
  8 12  1  0  0  0  0
  9  8  1  0  0  0  0
  9 10  1  0  0  0  0
 10 11  3  0  0  0  0
 13  1  1  0  0  0  0
 15  2  1  0  0  0  0
 16  5  1  0  0  0  0
 17  6  1  0  0  0  0
M  END
