313172142.xyz
 OpenBabel08132112093D
COc1c(S)ccc(c1OC(F)F)Br
 21 21  0  0  0  0  0  0  0  0999 V2000
    3.4734    0.7690    2.0985 C   0  0  0  0  0  0  0  0  0  0  0  0
    2.3623   -0.0755    1.8023 O   0  0  0  0  0  0  0  0  0  0  0  0
    1.2068    0.0000    2.5073 C   0  0  0  0  0  0  0  0  0  0  0  0
    0.0000    0.0000    1.7706 C   0  0  0  0  0  0  0  0  0  0  0  0
    0.0000    0.0000    0.0000 S   0  0  0  0  0  0  0  0  0  0  0  0
   -1.2243    0.0106    2.4495 C   0  0  0  0  0  0  0  0  0  0  0  0
   -1.2716    0.0074    3.8407 C   0  0  0  0  0  0  0  0  0  0  0  0
   -0.0839   -0.0127    4.5713 C   0  0  0  0  0  0  0  0  0  0  0  0
    1.1572   -0.0068    3.9164 C   0  0  0  0  0  0  0  0  0  0  0  0
    2.3536   -0.0984    4.5950 O   0  0  0  0  0  0  0  0  0  0  0  0
    2.7986    0.9470    5.3777 C   0  0  0  0  0  0  0  0  0  0  0  0
    2.5497    2.1355    4.7783 F   0  0  0  0  0  0  0  0  0  0  0  0
    4.1275    0.7954    5.4801 F   0  0  0  0  0  0  0  0  0  0  0  0
   -0.1762   -0.1343    6.4704 Br  0  0  0  0  0  0  0  0  0  0  0  0
    4.1091    0.3343    2.8815 H   0  0  0  0  0  0  0  0  0  0  0  0
    3.1386    1.7669    2.4178 H   0  0  0  0  0  0  0  0  0  0  0  0
    4.0479    0.8557    1.1658 H   0  0  0  0  0  0  0  0  0  0  0  0
    1.3386   -0.1388   -0.1153 H   0  0  0  0  0  0  0  0  0  0  0  0
   -2.1550    0.0157    1.8784 H   0  0  0  0  0  0  0  0  0  0  0  0
   -2.2285    0.0032    4.3631 H   0  0  0  0  0  0  0  0  0  0  0  0
    2.3487    0.9616    6.3820 H   0  0  0  0  0  0  0  0  0  0  0  0
  1 16  1  0  0  0  0
  1 15  1  0  0  0  0
  2  1  1  0  0  0  0
  2  3  1  0  0  0  0
  3  9  2  0  0  0  0
  4  6  2  0  0  0  0
  4  3  1  0  0  0  0
  5  4  1  0  0  0  0
  6  7  1  0  0  0  0
  7 20  1  0  0  0  0
  7  8  2  0  0  0  0
  8 14  1  0  0  0  0
  9  8  1  0  0  0  0
  9 10  1  0  0  0  0
 10 11  1  0  0  0  0
 11 13  1  0  0  0  0
 11 21  1  0  0  0  0
 12 11  1  0  0  0  0
 17  1  1  0  0  0  0
 18  5  1  0  0  0  0
 19  6  1  0  0  0  0
M  END
