313176458.xyz
 OpenBabel08132112093D
CCOc1c(S)c(ccc1C(F)(F)F)C(F)(F)F
 26 26  0  0  0  0  0  0  0  0999 V2000
   -4.2914   -1.0944    0.8232 C   0  0  0  0  0  0  0  0  0  0  0  0
   -2.9042   -1.2921    1.3891 C   0  0  0  0  0  0  0  0  0  0  0  0
   -2.4046    0.0045    1.7862 O   0  0  0  0  0  0  0  0  0  0  0  0
   -1.2297    0.0106    2.4732 C   0  0  0  0  0  0  0  0  0  0  0  0
   -0.0000   -0.0000    1.7772 C   0  0  0  0  0  0  0  0  0  0  0  0
    0.0000    0.0000    0.0000 S   0  0  0  0  0  0  0  0  0  0  0  0
    1.1977    0.0000    2.5220 C   0  0  0  0  0  0  0  0  0  0  0  0
    1.1613    0.0315    3.9177 C   0  0  0  0  0  0  0  0  0  0  0  0
   -0.0537    0.0899    4.5953 C   0  0  0  0  0  0  0  0  0  0  0  0
   -1.2496    0.0824    3.8755 C   0  0  0  0  0  0  0  0  0  0  0  0
   -2.5739    0.1938    4.5982 C   0  0  0  0  0  0  0  0  0  0  0  0
   -2.4019    0.2345    5.9306 F   0  0  0  0  0  0  0  0  0  0  0  0
   -3.3833   -0.8556    4.3434 F   0  0  0  0  0  0  0  0  0  0  0  0
   -3.2400    1.3019    4.2483 F   0  0  0  0  0  0  0  0  0  0  0  0
    2.5415    0.0122    1.8256 C   0  0  0  0  0  0  0  0  0  0  0  0
    2.7663    1.1814    1.2052 F   0  0  0  0  0  0  0  0  0  0  0  0
    2.6252   -0.9557    0.8948 F   0  0  0  0  0  0  0  0  0  0  0  0
    3.5510   -0.1799    2.6898 F   0  0  0  0  0  0  0  0  0  0  0  0
   -4.9549   -0.6564    1.5836 H   0  0  0  0  0  0  0  0  0  0  0  0
   -4.7103   -2.0608    0.5034 H   0  0  0  0  0  0  0  0  0  0  0  0
   -4.2686   -0.4212   -0.0478 H   0  0  0  0  0  0  0  0  0  0  0  0
   -2.2171   -1.7315    0.6459 H   0  0  0  0  0  0  0  0  0  0  0  0
   -2.9233   -1.9475    2.2731 H   0  0  0  0  0  0  0  0  0  0  0  0
   -1.2672    0.4685   -0.0784 H   0  0  0  0  0  0  0  0  0  0  0  0
    2.0978    0.0274    4.4742 H   0  0  0  0  0  0  0  0  0  0  0  0
   -0.0775    0.1422    5.6831 H   0  0  0  0  0  0  0  0  0  0  0  0
  1  2  1  0  0  0  0
  1 19  1  0  0  0  0
  2  3  1  0  0  0  0
  2 23  1  0  0  0  0
  3  4  1  0  0  0  0
  4 10  1  0  0  0  0
  5  4  2  0  0  0  0
  5  7  1  0  0  0  0
  6  5  1  0  0  0  0
  7  8  2  0  0  0  0
  8 25  1  0  0  0  0
  8  9  1  0  0  0  0
  9 26  1  0  0  0  0
 10  9  2  0  0  0  0
 10 11  1  0  0  0  0
 11 12  1  0  0  0  0
 13 11  1  0  0  0  0
 14 11  1  0  0  0  0
 15  7  1  0  0  0  0
 15 18  1  0  0  0  0
 16 15  1  0  0  0  0
 17 15  1  0  0  0  0
 20  1  1  0  0  0  0
 21  1  1  0  0  0  0
 22  2  1  0  0  0  0
 24  6  1  0  0  0  0
M  END
