313153263.xyz
 OpenBabel08132112093D
COc1c(cc(cc1S)Br)OC(F)(F)F
 21 21  0  0  0  0  0  0  0  0999 V2000
    3.1576    1.1606    1.8240 C   0  0  0  0  0  0  0  0  0  0  0  0
    2.4007   -0.0506    1.8376 O   0  0  0  0  0  0  0  0  0  0  0  0
    1.2100    0.0000    2.4954 C   0  0  0  0  0  0  0  0  0  0  0  0
    1.1529    0.0108    3.8957 C   0  0  0  0  0  0  0  0  0  0  0  0
   -0.0533    0.0354    4.5917 C   0  0  0  0  0  0  0  0  0  0  0  0
   -1.2373    0.0361    3.8522 C   0  0  0  0  0  0  0  0  0  0  0  0
   -1.2235    0.0108    2.4579 C   0  0  0  0  0  0  0  0  0  0  0  0
   -0.0000   -0.0000    1.7714 C   0  0  0  0  0  0  0  0  0  0  0  0
    0.0000    0.0000    0.0000 S   0  0  0  0  0  0  0  0  0  0  0  0
   -2.9050    0.0652    4.7687 Br  0  0  0  0  0  0  0  0  0  0  0  0
    2.3569    0.0500    4.5935 O   0  0  0  0  0  0  0  0  0  0  0  0
    2.8451   -1.1183    5.0813 C   0  0  0  0  0  0  0  0  0  0  0  0
    2.9246   -2.0667    4.1451 F   0  0  0  0  0  0  0  0  0  0  0  0
    2.0818   -1.6012    6.0737 F   0  0  0  0  0  0  0  0  0  0  0  0
    4.0574   -0.8770    5.5596 F   0  0  0  0  0  0  0  0  0  0  0  0
    4.0635    0.9568    1.2382 H   0  0  0  0  0  0  0  0  0  0  0  0
    3.4427    1.4609    2.8439 H   0  0  0  0  0  0  0  0  0  0  0  0
    2.5848    1.9725    1.3445 H   0  0  0  0  0  0  0  0  0  0  0  0
   -0.0530    0.0493    5.6802 H   0  0  0  0  0  0  0  0  0  0  0  0
   -2.1612    0.0002    1.9012 H   0  0  0  0  0  0  0  0  0  0  0  0
    1.3179   -0.2838   -0.1061 H   0  0  0  0  0  0  0  0  0  0  0  0
  1  2  1  0  0  0  0
  1 17  1  0  0  0  0
  2  3  1  0  0  0  0
  3  4  2  0  0  0  0
  4  5  1  0  0  0  0
  4 11  1  0  0  0  0
  5 19  1  0  0  0  0
  6  5  2  0  0  0  0
  6 10  1  0  0  0  0
  7  6  1  0  0  0  0
  8  7  2  0  0  0  0
  8  3  1  0  0  0  0
  9  8  1  0  0  0  0
 11 12  1  0  0  0  0
 12 15  1  0  0  0  0
 12 14  1  0  0  0  0
 13 12  1  0  0  0  0
 16  1  1  0  0  0  0
 18  1  1  0  0  0  0
 20  7  1  0  0  0  0
 21  9  1  0  0  0  0
M  END
