313170137.xyz
 OpenBabel08132112093D
NC(=O)c1cc(S)c(c(c1)Br)I
 17 17  0  0  0  0  0  0  0  0999 V2000
   -3.8466    0.4042    3.6506 N   0  0  0  0  0  0  0  0  0  0  0  0
   -2.7916   -0.0018    4.4197 C   0  0  0  0  0  0  0  0  0  0  0  0
   -2.9218   -0.3601    5.5762 O   0  0  0  0  0  0  0  0  0  0  0  0
   -1.4422    0.0063    3.7454 C   0  0  0  0  0  0  0  0  0  0  0  0
   -1.2776    0.0023    2.3612 C   0  0  0  0  0  0  0  0  0  0  0  0
   -0.0000   -0.0000    1.7730 C   0  0  0  0  0  0  0  0  0  0  0  0
    0.0000    0.0000    0.0000 S   0  0  0  0  0  0  0  0  0  0  0  0
    1.1369   -0.0000    2.6131 C   0  0  0  0  0  0  0  0  0  0  0  0
    0.9588   -0.0158    4.0119 C   0  0  0  0  0  0  0  0  0  0  0  0
   -0.3160   -0.0199    4.5735 C   0  0  0  0  0  0  0  0  0  0  0  0
    2.4264   -0.0330    5.2217 Br  0  0  0  0  0  0  0  0  0  0  0  0
    3.0949    0.0138    1.7912 I   0  0  0  0  0  0  0  0  0  0  0  0
   -3.7100    0.9356    2.8016 H   0  0  0  0  0  0  0  0  0  0  0  0
   -4.7462    0.4725    4.1124 H   0  0  0  0  0  0  0  0  0  0  0  0
   -2.1472   -0.0344    1.7021 H   0  0  0  0  0  0  0  0  0  0  0  0
    1.3407   -0.0803   -0.1627 H   0  0  0  0  0  0  0  0  0  0  0  0
   -0.4567   -0.0466    5.6535 H   0  0  0  0  0  0  0  0  0  0  0  0
  1 14  1  0  0  0  0
  1  2  1  0  0  0  0
  2  3  2  0  0  0  0
  4  2  1  0  0  0  0
  4 10  2  0  0  0  0
  5  4  1  0  0  0  0
  6  5  2  0  0  0  0
  6  8  1  0  0  0  0
  7  6  1  0  0  0  0
  8  9  2  0  0  0  0
  9 10  1  0  0  0  0
  9 11  1  0  0  0  0
 10 17  1  0  0  0  0
 12  8  1  0  0  0  0
 13  1  1  0  0  0  0
 15  5  1  0  0  0  0
 16  7  1  0  0  0  0
M  END
