313148604.xyz
 OpenBabel08132112093D
COc1ccc(c(c1C(F)F)Br)S
 20 20  0  0  0  0  0  0  0  0999 V2000
   -1.5896   -0.0000    6.5882 C   0  0  0  0  0  0  0  0  0  0  0  0
   -0.3321   -0.0002    5.9489 O   0  0  0  0  0  0  0  0  0  0  0  0
   -0.2729   -0.0001    4.5924 C   0  0  0  0  0  0  0  0  0  0  0  0
   -1.4081   -0.0002    3.7717 C   0  0  0  0  0  0  0  0  0  0  0  0
   -1.2612   -0.0001    2.3903 C   0  0  0  0  0  0  0  0  0  0  0  0
   -0.0000   -0.0000    1.7746 C   0  0  0  0  0  0  0  0  0  0  0  0
    1.1338    0.0000    2.6127 C   0  0  0  0  0  0  0  0  0  0  0  0
    1.0141   -0.0000    4.0134 C   0  0  0  0  0  0  0  0  0  0  0  0
    2.2036   -0.0000    4.9473 C   0  0  0  0  0  0  0  0  0  0  0  0
    2.9845    1.0981    4.7488 F   0  0  0  0  0  0  0  0  0  0  0  0
    2.9848   -1.0979    4.7484 F   0  0  0  0  0  0  0  0  0  0  0  0
    2.8760   -0.0002    1.8298 Br  0  0  0  0  0  0  0  0  0  0  0  0
    0.0000    0.0000    0.0000 S   0  0  0  0  0  0  0  0  0  0  0  0
   -2.1775   -0.8986    6.3310 H   0  0  0  0  0  0  0  0  0  0  0  0
   -1.3888   -0.0003    7.6671 H   0  0  0  0  0  0  0  0  0  0  0  0
   -2.1770    0.8990    6.3314 H   0  0  0  0  0  0  0  0  0  0  0  0
   -2.4092   -0.0002    4.1992 H   0  0  0  0  0  0  0  0  0  0  0  0
   -2.1542   -0.0001    1.7609 H   0  0  0  0  0  0  0  0  0  0  0  0
    1.8762   -0.0003    5.9947 H   0  0  0  0  0  0  0  0  0  0  0  0
    1.3422    0.0011   -0.1537 H   0  0  0  0  0  0  0  0  0  0  0  0
  1 15  1  0  0  0  0
  2  1  1  0  0  0  0
  3  2  1  0  0  0  0
  4 17  1  0  0  0  0
  4  3  2  0  0  0  0
  5  4  1  0  0  0  0
  6  5  2  0  0  0  0
  6  7  1  0  0  0  0
  7  8  2  0  0  0  0
  8  3  1  0  0  0  0
  8  9  1  0  0  0  0
  9 19  1  0  0  0  0
 10  9  1  0  0  0  0
 11  9  1  0  0  0  0
 12  7  1  0  0  0  0
 13  6  1  0  0  0  0
 14  1  1  0  0  0  0
 16  1  1  0  0  0  0
 18  5  1  0  0  0  0
 20 13  1  0  0  0  0
M  END
