313134562.xyz
 OpenBabel08132112093D
BrCC(=O)c1cc(C)c(c(c1)S)Br
 21 21  0  0  0  0  0  0  0  0999 V2000
    2.5563    1.7494    6.5976 Br  0  0  0  0  0  0  0  0  0  0  0  0
    2.9735   -0.0199    5.8438 C   0  0  0  0  0  0  0  0  0  0  0  0
    2.7800   -0.0235    4.3326 C   0  0  0  0  0  0  0  0  0  0  0  0
    3.7566   -0.0651    3.6130 O   0  0  0  0  0  0  0  0  0  0  0  0
    1.3922   -0.0008    3.7740 C   0  0  0  0  0  0  0  0  0  0  0  0
    0.2416   -0.0014    4.5753 C   0  0  0  0  0  0  0  0  0  0  0  0
   -1.0373   -0.0010    4.0103 C   0  0  0  0  0  0  0  0  0  0  0  0
   -2.2528    0.0050    4.8979 C   0  0  0  0  0  0  0  0  0  0  0  0
   -1.1391   -0.0018    2.6047 C   0  0  0  0  0  0  0  0  0  0  0  0
    0.0000    0.0000    1.7714 C   0  0  0  0  0  0  0  0  0  0  0  0
    1.2605    0.0000    2.3837 C   0  0  0  0  0  0  0  0  0  0  0  0
    0.0000    0.0000    0.0000 S   0  0  0  0  0  0  0  0  0  0  0  0
   -2.8904   -0.0022    1.8383 Br  0  0  0  0  0  0  0  0  0  0  0  0
    2.3284   -0.7412    6.3598 H   0  0  0  0  0  0  0  0  0  0  0  0
    4.0284   -0.2140    6.0605 H   0  0  0  0  0  0  0  0  0  0  0  0
    0.3208    0.0207    5.6621 H   0  0  0  0  0  0  0  0  0  0  0  0
   -2.8802    0.8903    4.7082 H   0  0  0  0  0  0  0  0  0  0  0  0
   -2.8867   -0.8770    4.7138 H   0  0  0  0  0  0  0  0  0  0  0  0
   -1.9598    0.0084    5.9566 H   0  0  0  0  0  0  0  0  0  0  0  0
    2.1691   -0.0016    1.7789 H   0  0  0  0  0  0  0  0  0  0  0  0
   -1.3412    0.0077   -0.1604 H   0  0  0  0  0  0  0  0  0  0  0  0
  2 15  1  0  0  0  0
  2 14  1  0  0  0  0
  2  1  1  0  0  0  0
  3  2  1  0  0  0  0
  4  3  2  0  0  0  0
  5  3  1  0  0  0  0
  5  6  2  0  0  0  0
  6 16  1  0  0  0  0
  7  6  1  0  0  0  0
  7  8  1  0  0  0  0
  8 19  1  0  0  0  0
  9  7  2  0  0  0  0
 10 11  2  0  0  0  0
 10  9  1  0  0  0  0
 11  5  1  0  0  0  0
 12 10  1  0  0  0  0
 13  9  1  0  0  0  0
 17  8  1  0  0  0  0
 18  8  1  0  0  0  0
 20 11  1  0  0  0  0
 21 12  1  0  0  0  0
M  END
