313144290.xyz
 OpenBabel08132112093D
BrCc1c(S)ccc(c1Br)C(F)(F)F
 19 19  0  0  0  0  0  0  0  0999 V2000
    3.1266    1.7511    1.2755 Br  0  0  0  0  0  0  0  0  0  0  0  0
    2.5155   -0.0529    1.8637 C   0  0  0  0  0  0  0  0  0  0  0  0
    1.1928   -0.0000    2.5475 C   0  0  0  0  0  0  0  0  0  0  0  0
    0.0000    0.0000    1.7818 C   0  0  0  0  0  0  0  0  0  0  0  0
    0.0000    0.0000    0.0000 S   0  0  0  0  0  0  0  0  0  0  0  0
   -1.2451   -0.0446    2.4170 C   0  0  0  0  0  0  0  0  0  0  0  0
   -1.3233   -0.0667    3.8045 C   0  0  0  0  0  0  0  0  0  0  0  0
   -0.1691   -0.0113    4.5922 C   0  0  0  0  0  0  0  0  0  0  0  0
    1.0824    0.0332    3.9530 C   0  0  0  0  0  0  0  0  0  0  0  0
    2.6770    0.1483    4.9976 Br  0  0  0  0  0  0  0  0  0  0  0  0
   -0.3224    0.0030    6.1005 C   0  0  0  0  0  0  0  0  0  0  0  0
    0.2915   -1.0417    6.6775 F   0  0  0  0  0  0  0  0  0  0  0  0
   -1.6186   -0.0604    6.4551 F   0  0  0  0  0  0  0  0  0  0  0  0
    0.1780    1.1215    6.6469 F   0  0  0  0  0  0  0  0  0  0  0  0
    2.4596   -0.6418    0.9421 H   0  0  0  0  0  0  0  0  0  0  0  0
    3.3130   -0.4208    2.5125 H   0  0  0  0  0  0  0  0  0  0  0  0
    1.0205    0.8789   -0.1601 H   0  0  0  0  0  0  0  0  0  0  0  0
   -2.1564   -0.0408    1.8169 H   0  0  0  0  0  0  0  0  0  0  0  0
   -2.2964   -0.1006    4.2932 H   0  0  0  0  0  0  0  0  0  0  0  0
  1  2  1  0  0  0  0
  2 16  1  0  0  0  0
  2  3  1  0  0  0  0
  3  9  2  0  0  0  0
  4  6  2  0  0  0  0
  4  3  1  0  0  0  0
  5  4  1  0  0  0  0
  6  7  1  0  0  0  0
  7 19  1  0  0  0  0
  7  8  2  0  0  0  0
  8 11  1  0  0  0  0
  9  8  1  0  0  0  0
  9 10  1  0  0  0  0
 11 13  1  0  0  0  0
 11 14  1  0  0  0  0
 11 12  1  0  0  0  0
 15  2  1  0  0  0  0
 17  5  1  0  0  0  0
 18  6  1  0  0  0  0
M  END
