313153519.xyz
 OpenBabel08132112093D
COc1c(ccc(c1S)Br)OC(F)(F)F
 21 21  0  0  0  0  0  0  0  0999 V2000
    3.1503   -1.1854    1.8286 C   0  0  0  0  0  0  0  0  0  0  0  0
    2.3982    0.0292    1.8216 O   0  0  0  0  0  0  0  0  0  0  0  0
    1.2137   -0.0000    2.4928 C   0  0  0  0  0  0  0  0  0  0  0  0
    1.1798    0.0059    3.8931 C   0  0  0  0  0  0  0  0  0  0  0  0
   -0.0216   -0.0023    4.5970 C   0  0  0  0  0  0  0  0  0  0  0  0
   -1.2218   -0.0086    3.8884 C   0  0  0  0  0  0  0  0  0  0  0  0
   -1.2058   -0.0038    2.4926 C   0  0  0  0  0  0  0  0  0  0  0  0
   -0.0000   -0.0000    1.7683 C   0  0  0  0  0  0  0  0  0  0  0  0
    0.0000    0.0000    0.0000 S   0  0  0  0  0  0  0  0  0  0  0  0
   -2.8624   -0.0170    1.5571 Br  0  0  0  0  0  0  0  0  0  0  0  0
    2.3948   -0.0317    4.5733 O   0  0  0  0  0  0  0  0  0  0  0  0
    2.8980    1.1403    5.0336 C   0  0  0  0  0  0  0  0  0  0  0  0
    2.1486    1.6501    6.0240 F   0  0  0  0  0  0  0  0  0  0  0  0
    2.9780    2.0709    4.0794 F   0  0  0  0  0  0  0  0  0  0  0  0
    4.1127    0.8974    5.5058 F   0  0  0  0  0  0  0  0  0  0  0  0
    4.0478   -0.9998    1.2241 H   0  0  0  0  0  0  0  0  0  0  0  0
    3.4494   -1.4602    2.8515 H   0  0  0  0  0  0  0  0  0  0  0  0
    2.5673   -2.0068    1.3785 H   0  0  0  0  0  0  0  0  0  0  0  0
   -0.0057   -0.0023    5.6867 H   0  0  0  0  0  0  0  0  0  0  0  0
   -2.1758   -0.0151    4.4163 H   0  0  0  0  0  0  0  0  0  0  0  0
    1.3369    0.1944   -0.0816 H   0  0  0  0  0  0  0  0  0  0  0  0
  1 17  1  0  0  0  0
  2  1  1  0  0  0  0
  2  3  1  0  0  0  0
  3  4  2  0  0  0  0
  4 11  1  0  0  0  0
  4  5  1  0  0  0  0
  5 19  1  0  0  0  0
  6 20  1  0  0  0  0
  6  5  2  0  0  0  0
  7  6  1  0  0  0  0
  8  7  2  0  0  0  0
  8  3  1  0  0  0  0
  9  8  1  0  0  0  0
 10  7  1  0  0  0  0
 11 12  1  0  0  0  0
 12 15  1  0  0  0  0
 12 13  1  0  0  0  0
 14 12  1  0  0  0  0
 16  1  1  0  0  0  0
 18  1  1  0  0  0  0
 21  9  1  0  0  0  0
M  END
