313172900.xyz
 OpenBabel08132112093D
N#CCc1cc(Br)c(cc1OC(F)F)S
 21 21  0  0  0  0  0  0  0  0999 V2000
    1.4711    2.3234    6.8355 N   0  0  0  0  0  0  0  0  0  0  0  0
    0.9867    1.3121    6.5454 C   0  0  0  0  0  0  0  0  0  0  0  0
    0.3961    0.0430    6.1054 C   0  0  0  0  0  0  0  0  0  0  0  0
    0.2359    0.0030    4.5991 C   0  0  0  0  0  0  0  0  0  0  0  0
   -1.0160   -0.0057    3.9875 C   0  0  0  0  0  0  0  0  0  0  0  0
   -1.1395   -0.0079    2.5944 C   0  0  0  0  0  0  0  0  0  0  0  0
   -2.9046   -0.0187    1.8712 Br  0  0  0  0  0  0  0  0  0  0  0  0
    0.0000    0.0000    1.7675 C   0  0  0  0  0  0  0  0  0  0  0  0
    1.2628   -0.0000    2.3904 C   0  0  0  0  0  0  0  0  0  0  0  0
    1.3736    0.0047    3.7759 C   0  0  0  0  0  0  0  0  0  0  0  0
    2.6013   -0.0437    4.4034 O   0  0  0  0  0  0  0  0  0  0  0  0
    3.4752    1.0048    4.2142 C   0  0  0  0  0  0  0  0  0  0  0  0
    4.0477    0.9281    2.9853 F   0  0  0  0  0  0  0  0  0  0  0  0
    4.4390    0.8666    5.1239 F   0  0  0  0  0  0  0  0  0  0  0  0
    0.0000    0.0000    0.0000 S   0  0  0  0  0  0  0  0  0  0  0  0
    1.0542   -0.7725    6.4472 H   0  0  0  0  0  0  0  0  0  0  0  0
   -0.5785   -0.0870    6.5991 H   0  0  0  0  0  0  0  0  0  0  0  0
   -1.9189   -0.0018    4.6001 H   0  0  0  0  0  0  0  0  0  0  0  0
    2.1702   -0.0137    1.7868 H   0  0  0  0  0  0  0  0  0  0  0  0
    2.9826    1.9868    4.3154 H   0  0  0  0  0  0  0  0  0  0  0  0
   -1.3432   -0.0136   -0.1508 H   0  0  0  0  0  0  0  0  0  0  0  0
  2  1  3  0  0  0  0
  3 16  1  0  0  0  0
  3  2  1  0  0  0  0
  3 17  1  0  0  0  0
  4  3  1  0  0  0  0
  5  4  1  0  0  0  0
  5 18  1  0  0  0  0
  6  5  2  0  0  0  0
  7  6  1  0  0  0  0
  8  9  2  0  0  0  0
  8  6  1  0  0  0  0
  9 10  1  0  0  0  0
 10 11  1  0  0  0  0
 10  4  2  0  0  0  0
 12 20  1  0  0  0  0
 12 11  1  0  0  0  0
 12 14  1  0  0  0  0
 13 12  1  0  0  0  0
 15  8  1  0  0  0  0
 19  9  1  0  0  0  0
 21 15  1  0  0  0  0
M  END
