313142250.xyz
 OpenBabel08132112093D
N#CCc1c(S)ccc(c1Br)OC(F)(F)F
 21 21  0  0  0  0  0  0  0  0999 V2000
   -3.3226   -2.4448    1.0177 N   0  0  0  0  0  0  0  0  0  0  0  0
   -2.9819   -1.3750    1.3006 C   0  0  0  0  0  0  0  0  0  0  0  0
   -2.5365   -0.0258    1.6653 C   0  0  0  0  0  0  0  0  0  0  0  0
   -1.2410   -0.0301    2.4538 C   0  0  0  0  0  0  0  0  0  0  0  0
    0.0000    0.0000    1.7802 C   0  0  0  0  0  0  0  0  0  0  0  0
    0.0000    0.0000    0.0000 S   0  0  0  0  0  0  0  0  0  0  0  0
    1.1976    0.0000    2.5105 C   0  0  0  0  0  0  0  0  0  0  0  0
    1.1773   -0.0305    3.9000 C   0  0  0  0  0  0  0  0  0  0  0  0
   -0.0399   -0.0666    4.5773 C   0  0  0  0  0  0  0  0  0  0  0  0
   -1.2425   -0.0762    3.8588 C   0  0  0  0  0  0  0  0  0  0  0  0
   -2.8727   -0.1711    4.8287 Br  0  0  0  0  0  0  0  0  0  0  0  0
   -0.0669   -0.1623    5.9599 O   0  0  0  0  0  0  0  0  0  0  0  0
    0.2053    0.9491    6.6882 C   0  0  0  0  0  0  0  0  0  0  0  0
    1.4875    1.3331    6.5583 F   0  0  0  0  0  0  0  0  0  0  0  0
   -0.0211    0.6650    7.9595 F   0  0  0  0  0  0  0  0  0  0  0  0
   -0.5535    1.9882    6.3254 F   0  0  0  0  0  0  0  0  0  0  0  0
   -3.3350    0.4537    2.2495 H   0  0  0  0  0  0  0  0  0  0  0  0
   -2.4110    0.5617    0.7411 H   0  0  0  0  0  0  0  0  0  0  0  0
    1.3164    0.2682   -0.1395 H   0  0  0  0  0  0  0  0  0  0  0  0
    2.1565    0.0116    1.9898 H   0  0  0  0  0  0  0  0  0  0  0  0
    2.1036   -0.0382    4.4745 H   0  0  0  0  0  0  0  0  0  0  0  0
  1  2  3  0  0  0  0
  2  3  1  0  0  0  0
  3 17  1  0  0  0  0
  3  4  1  0  0  0  0
  4 10  1  0  0  0  0
  5  4  2  0  0  0  0
  5  7  1  0  0  0  0
  6  5  1  0  0  0  0
  7  8  2  0  0  0  0
  8 21  1  0  0  0  0
  8  9  1  0  0  0  0
  9 12  1  0  0  0  0
 10  9  2  0  0  0  0
 10 11  1  0  0  0  0
 12 13  1  0  0  0  0
 13 15  1  0  0  0  0
 14 13  1  0  0  0  0
 16 13  1  0  0  0  0
 18  3  1  0  0  0  0
 19  6  1  0  0  0  0
 20  7  1  0  0  0  0
M  END
