313174174.xyz
 OpenBabel08132112093D
N#Cc1cc(S)c(cc1OC(F)F)Br
 18 18  0  0  0  0  0  0  0  0999 V2000
   -3.7576    0.0558    4.8463 N   0  0  0  0  0  0  0  0  0  0  0  0
   -2.6914    0.0322    4.3895 C   0  0  0  0  0  0  0  0  0  0  0  0
   -1.3903    0.0098    3.7907 C   0  0  0  0  0  0  0  0  0  0  0  0
   -1.2561   -0.0013    2.3980 C   0  0  0  0  0  0  0  0  0  0  0  0
    0.0000   -0.0000    1.7701 C   0  0  0  0  0  0  0  0  0  0  0  0
    0.0000    0.0000    0.0000 S   0  0  0  0  0  0  0  0  0  0  0  0
    1.1361   -0.0000    2.6025 C   0  0  0  0  0  0  0  0  0  0  0  0
    1.0249   -0.0063    3.9975 C   0  0  0  0  0  0  0  0  0  0  0  0
   -0.2327    0.0099    4.5974 C   0  0  0  0  0  0  0  0  0  0  0  0
   -0.4254   -0.0043    5.9504 O   0  0  0  0  0  0  0  0  0  0  0  0
    0.5082    0.5838    6.7705 C   0  0  0  0  0  0  0  0  0  0  0  0
   -0.0659    0.7466    7.9595 F   0  0  0  0  0  0  0  0  0  0  0  0
    1.5796   -0.2321    6.9303 F   0  0  0  0  0  0  0  0  0  0  0  0
    2.8981   -0.0104    1.8826 Br  0  0  0  0  0  0  0  0  0  0  0  0
   -2.1603   -0.0020    1.7869 H   0  0  0  0  0  0  0  0  0  0  0  0
    1.3427   -0.0133   -0.1505 H   0  0  0  0  0  0  0  0  0  0  0  0
    1.9248   -0.0520    4.6079 H   0  0  0  0  0  0  0  0  0  0  0  0
    0.8628    1.5520    6.3717 H   0  0  0  0  0  0  0  0  0  0  0  0
  2  1  3  0  0  0  0
  3  2  1  0  0  0  0
  3  9  2  0  0  0  0
  4  3  1  0  0  0  0
  5  4  2  0  0  0  0
  5  7  1  0  0  0  0
  6  5  1  0  0  0  0
  7  8  2  0  0  0  0
  8  9  1  0  0  0  0
  8 17  1  0  0  0  0
  9 10  1  0  0  0  0
 10 11  1  0  0  0  0
 11 13  1  0  0  0  0
 11 12  1  0  0  0  0
 14  7  1  0  0  0  0
 15  4  1  0  0  0  0
 16  6  1  0  0  0  0
 18 11  1  0  0  0  0
M  END
