313165809.xyz
 OpenBabel08132112093D
Sc1cc(c(cc1Br)OC(F)(F)F)C(F)(F)F
 20 20  0  0  0  0  0  0  0  0999 V2000
    0.0000    0.0000    0.0000 S   0  0  0  0  0  0  0  0  0  0  0  0
    0.0000   -0.0000    1.7692 C   0  0  0  0  0  0  0  0  0  0  0  0
    1.2581   -0.0000    2.3985 C   0  0  0  0  0  0  0  0  0  0  0  0
    1.3957   -0.0000    3.7815 C   0  0  0  0  0  0  0  0  0  0  0  0
    0.2439   -0.0002    4.5861 C   0  0  0  0  0  0  0  0  0  0  0  0
   -1.0170   -0.0000    3.9970 C   0  0  0  0  0  0  0  0  0  0  0  0
   -1.1317    0.0002    2.6024 C   0  0  0  0  0  0  0  0  0  0  0  0
   -2.8974    0.0010    1.8881 Br  0  0  0  0  0  0  0  0  0  0  0  0
    0.4667   -0.0008    5.9478 O   0  0  0  0  0  0  0  0  0  0  0  0
   -0.5416   -0.0006    6.8529 C   0  0  0  0  0  0  0  0  0  0  0  0
   -1.3271   -1.0798    6.7322 F   0  0  0  0  0  0  0  0  0  0  0  0
   -1.3250    1.0803    6.7339 F   0  0  0  0  0  0  0  0  0  0  0  0
    0.0036   -0.0021    8.0557 F   0  0  0  0  0  0  0  0  0  0  0  0
    2.7720    0.0004    4.4106 C   0  0  0  0  0  0  0  0  0  0  0  0
    3.7353    0.0005    3.4728 F   0  0  0  0  0  0  0  0  0  0  0  0
    2.9633    1.0828    5.1789 F   0  0  0  0  0  0  0  0  0  0  0  0
    2.9639   -1.0818    5.1792 F   0  0  0  0  0  0  0  0  0  0  0  0
   -1.3428   -0.0027   -0.1510 H   0  0  0  0  0  0  0  0  0  0  0  0
    2.1591   -0.0000    1.7843 H   0  0  0  0  0  0  0  0  0  0  0  0
   -1.9209   -0.0001    4.6005 H   0  0  0  0  0  0  0  0  0  0  0  0
  1  2  1  0  0  0  0
  2  3  2  0  0  0  0
  2  7  1  0  0  0  0
  3  4  1  0  0  0  0
  4 14  1  0  0  0  0
  4  5  2  0  0  0  0
  5  9  1  0  0  0  0
  6  5  1  0  0  0  0
  6 20  1  0  0  0  0
  7  6  2  0  0  0  0
  8  7  1  0  0  0  0
  9 10  1  0  0  0  0
 10 13  1  0  0  0  0
 11 10  1  0  0  0  0
 12 10  1  0  0  0  0
 14 16  1  0  0  0  0
 14 17  1  0  0  0  0
 15 14  1  0  0  0  0
 18  1  1  0  0  0  0
 19  3  1  0  0  0  0
M  END
