313132756.xyz
 OpenBabel08132112093D
OCc1cc(F)c(cc1Br)S
 17 17  0  0  0  0  0  0  0  0999 V2000
   -1.2565   -0.0005    6.6085 O   0  0  0  0  0  0  0  0  0  0  0  0
    0.0656    0.0001    6.1256 C   0  0  0  0  0  0  0  0  0  0  0  0
    0.0542    0.0000    4.6174 C   0  0  0  0  0  0  0  0  0  0  0  0
   -1.1588    0.0001    3.9210 C   0  0  0  0  0  0  0  0  0  0  0  0
   -1.1762    0.0000    2.5336 C   0  0  0  0  0  0  0  0  0  0  0  0
   -2.3630    0.0000    1.8993 F   0  0  0  0  0  0  0  0  0  0  0  0
   -0.0000   -0.0000    1.7729 C   0  0  0  0  0  0  0  0  0  0  0  0
    1.2194   -0.0000    2.4656 C   0  0  0  0  0  0  0  0  0  0  0  0
    1.2348    0.0000    3.8594 C   0  0  0  0  0  0  0  0  0  0  0  0
    2.9306   -0.0000    4.7436 Br  0  0  0  0  0  0  0  0  0  0  0  0
    0.0000    0.0000    0.0000 S   0  0  0  0  0  0  0  0  0  0  0  0
   -1.2286   -0.0006    7.5720 H   0  0  0  0  0  0  0  0  0  0  0  0
    0.6347    0.8863    6.4731 H   0  0  0  0  0  0  0  0  0  0  0  0
    0.6355   -0.8856    6.4731 H   0  0  0  0  0  0  0  0  0  0  0  0
   -2.0964    0.0001    4.4757 H   0  0  0  0  0  0  0  0  0  0  0  0
    2.1595   -0.0000    1.9122 H   0  0  0  0  0  0  0  0  0  0  0  0
   -1.3436   -0.0000   -0.1338 H   0  0  0  0  0  0  0  0  0  0  0  0
  1 12  1  0  0  0  0
  2 13  1  0  0  0  0
  2 14  1  0  0  0  0
  2  1  1  0  0  0  0
  3  2  1  0  0  0  0
  4 15  1  0  0  0  0
  4  3  1  0  0  0  0
  5  4  2  0  0  0  0
  6  5  1  0  0  0  0
  7  8  2  0  0  0  0
  7  5  1  0  0  0  0
  8  9  1  0  0  0  0
  9  3  2  0  0  0  0
  9 10  1  0  0  0  0
 11  7  1  0  0  0  0
 16  8  1  0  0  0  0
 17 11  1  0  0  0  0
M  END
