313145313.xyz
 OpenBabel08132112093D
OCc1c(S)ccc(c1C(F)(F)F)Br
 20 20  0  0  0  0  0  0  0  0999 V2000
    3.1926    1.3339    1.9598 O   0  0  0  0  0  0  0  0  0  0  0  0
    2.5194    0.1241    1.6919 C   0  0  0  0  0  0  0  0  0  0  0  0
    1.2269   -0.0000    2.4889 C   0  0  0  0  0  0  0  0  0  0  0  0
    0.0000    0.0000    1.7878 C   0  0  0  0  0  0  0  0  0  0  0  0
    0.0000    0.0000    0.0000 S   0  0  0  0  0  0  0  0  0  0  0  0
   -1.2144    0.0016    2.4859 C   0  0  0  0  0  0  0  0  0  0  0  0
   -1.2263    0.0484    3.8712 C   0  0  0  0  0  0  0  0  0  0  0  0
   -0.0250    0.0549    4.5827 C   0  0  0  0  0  0  0  0  0  0  0  0
    1.2103   -0.0032    3.9070 C   0  0  0  0  0  0  0  0  0  0  0  0
    2.4878   -0.0535    4.7456 C   0  0  0  0  0  0  0  0  0  0  0  0
    2.3964   -1.0142    5.6834 F   0  0  0  0  0  0  0  0  0  0  0  0
    2.6972    1.1124    5.3746 F   0  0  0  0  0  0  0  0  0  0  0  0
    3.5945   -0.3353    4.0498 F   0  0  0  0  0  0  0  0  0  0  0  0
   -0.1970    0.1953    6.4785 Br  0  0  0  0  0  0  0  0  0  0  0  0
    2.6057    2.0608    1.7116 H   0  0  0  0  0  0  0  0  0  0  0  0
    3.2133   -0.6876    1.9350 H   0  0  0  0  0  0  0  0  0  0  0  0
    2.2908    0.0255    0.6168 H   0  0  0  0  0  0  0  0  0  0  0  0
   -1.3382    0.1401   -0.1267 H   0  0  0  0  0  0  0  0  0  0  0  0
   -2.1627   -0.0135    1.9449 H   0  0  0  0  0  0  0  0  0  0  0  0
   -2.1722    0.0836    4.4123 H   0  0  0  0  0  0  0  0  0  0  0  0
  2 16  1  0  0  0  0
  2  1  1  0  0  0  0
  2  3  1  0  0  0  0
  3  9  2  0  0  0  0
  4  6  2  0  0  0  0
  4  3  1  0  0  0  0
  5  4  1  0  0  0  0
  6  7  1  0  0  0  0
  7 20  1  0  0  0  0
  7  8  2  0  0  0  0
  8 14  1  0  0  0  0
  9  8  1  0  0  0  0
  9 10  1  0  0  0  0
 10 12  1  0  0  0  0
 10 11  1  0  0  0  0
 13 10  1  0  0  0  0
 15  1  1  0  0  0  0
 17  2  1  0  0  0  0
 18  5  1  0  0  0  0
 19  6  1  0  0  0  0
M  END
