313173922.xyz
 OpenBabel08132112093D
FC(Oc1cc(S)c(cc1Br)CC(=O)O)F
 23 23  0  0  0  0  0  0  0  0999 V2000
    4.3009   -0.8571    5.3573 F   0  0  0  0  0  0  0  0  0  0  0  0
    3.2601   -1.0908    4.5581 C   0  0  0  0  0  0  0  0  0  0  0  0
    2.6180    0.1113    4.3720 O   0  0  0  0  0  0  0  0  0  0  0  0
    1.3724    0.0649    3.7912 C   0  0  0  0  0  0  0  0  0  0  0  0
    1.2552    0.0000    2.4030 C   0  0  0  0  0  0  0  0  0  0  0  0
    0.0000    0.0000    1.7799 C   0  0  0  0  0  0  0  0  0  0  0  0
    0.0000    0.0000    0.0000 S   0  0  0  0  0  0  0  0  0  0  0  0
   -1.1683    0.0758    2.5752 C   0  0  0  0  0  0  0  0  0  0  0  0
   -1.0352    0.1217    3.9691 C   0  0  0  0  0  0  0  0  0  0  0  0
    0.2183    0.1113    4.5843 C   0  0  0  0  0  0  0  0  0  0  0  0
    0.3574    0.1684    6.4743 Br  0  0  0  0  0  0  0  0  0  0  0  0
   -2.5419    0.0765    1.9526 C   0  0  0  0  0  0  0  0  0  0  0  0
   -2.9463   -1.3075    1.4382 C   0  0  0  0  0  0  0  0  0  0  0  0
   -3.2775   -1.5282    0.3041 O   0  0  0  0  0  0  0  0  0  0  0  0
   -2.8934   -2.2980    2.3478 O   0  0  0  0  0  0  0  0  0  0  0  0
    3.7322   -1.5590    3.3763 F   0  0  0  0  0  0  0  0  0  0  0  0
    2.5998   -1.8601    4.9966 H   0  0  0  0  0  0  0  0  0  0  0  0
    2.1701   -0.0599    1.8125 H   0  0  0  0  0  0  0  0  0  0  0  0
   -1.1923   -0.6038   -0.2079 H   0  0  0  0  0  0  0  0  0  0  0  0
   -1.9270    0.1960    4.5956 H   0  0  0  0  0  0  0  0  0  0  0  0
   -3.2899    0.3975    2.6954 H   0  0  0  0  0  0  0  0  0  0  0  0
   -2.5927    0.7664    1.0996 H   0  0  0  0  0  0  0  0  0  0  0  0
   -2.5122   -1.9748    3.1790 H   0  0  0  0  0  0  0  0  0  0  0  0
  2 17  1  0  0  0  0
  2  1  1  0  0  0  0
  3  2  1  0  0  0  0
  4  3  1  0  0  0  0
  4 10  2  0  0  0  0
  5  4  1  0  0  0  0
  6  5  2  0  0  0  0
  6  8  1  0  0  0  0
  7  6  1  0  0  0  0
  8  9  2  0  0  0  0
  9 10  1  0  0  0  0
  9 20  1  0  0  0  0
 10 11  1  0  0  0  0
 12  8  1  0  0  0  0
 12 21  1  0  0  0  0
 13 12  1  0  0  0  0
 13 15  1  0  0  0  0
 14 13  2  0  0  0  0
 15 23  1  0  0  0  0
 16  2  1  0  0  0  0
 18  5  1  0  0  0  0
 19  7  1  0  0  0  0
 22 12  1  0  0  0  0
M  END
