313261685.xyz
 OpenBabel08132112093D
CCOc1cc(S)c(cc1C(F)(F)F)Cl
 23 23  0  0  0  0  0  0  0  0999 V2000
    4.0929   -1.5263    3.3677 C   0  0  0  0  0  0  0  0  0  0  0  0
    3.7858   -0.0940    3.7763 C   0  0  0  0  0  0  0  0  0  0  0  0
    2.5416    0.0205    4.4608 O   0  0  0  0  0  0  0  0  0  0  0  0
    1.3727   -0.0010    3.7933 C   0  0  0  0  0  0  0  0  0  0  0  0
    1.2560    0.0000    2.4006 C   0  0  0  0  0  0  0  0  0  0  0  0
    0.0000    0.0000    1.7678 C   0  0  0  0  0  0  0  0  0  0  0  0
    0.0000    0.0000    0.0000 S   0  0  0  0  0  0  0  0  0  0  0  0
   -1.1548   -0.0031    2.5693 C   0  0  0  0  0  0  0  0  0  0  0  0
   -1.0439   -0.0075    3.9604 C   0  0  0  0  0  0  0  0  0  0  0  0
    0.1998   -0.0081    4.5832 C   0  0  0  0  0  0  0  0  0  0  0  0
    0.3008   -0.0212    6.0870 C   0  0  0  0  0  0  0  0  0  0  0  0
    0.9596   -1.1029    6.5379 F   0  0  0  0  0  0  0  0  0  0  0  0
    0.9401    1.0607    6.5616 F   0  0  0  0  0  0  0  0  0  0  0  0
   -0.9201   -0.0387    6.6578 F   0  0  0  0  0  0  0  0  0  0  0  0
   -2.7591   -0.0068    1.8661 Cl  0  0  0  0  0  0  0  0  0  0  0  0
    4.0680   -2.1848    4.2488 H   0  0  0  0  0  0  0  0  0  0  0  0
    3.3683   -1.9095    2.6338 H   0  0  0  0  0  0  0  0  0  0  0  0
    5.0968   -1.5824    2.9184 H   0  0  0  0  0  0  0  0  0  0  0  0
    3.8103    0.5942    2.9135 H   0  0  0  0  0  0  0  0  0  0  0  0
    4.5291    0.2676    4.5009 H   0  0  0  0  0  0  0  0  0  0  0  0
    2.1474    0.0014    1.7753 H   0  0  0  0  0  0  0  0  0  0  0  0
   -1.3435   -0.0021   -0.1429 H   0  0  0  0  0  0  0  0  0  0  0  0
   -1.9491   -0.0125    4.5659 H   0  0  0  0  0  0  0  0  0  0  0  0
  1  2  1  0  0  0  0
  1 16  1  0  0  0  0
  2  3  1  0  0  0  0
  2 20  1  0  0  0  0
  4  3  1  0  0  0  0
  4 10  2  0  0  0  0
  5  4  1  0  0  0  0
  6  5  2  0  0  0  0
  6  8  1  0  0  0  0
  7  6  1  0  0  0  0
  8  9  2  0  0  0  0
  9 23  1  0  0  0  0
  9 10  1  0  0  0  0
 10 11  1  0  0  0  0
 11 12  1  0  0  0  0
 11 13  1  0  0  0  0
 11 14  1  0  0  0  0
 15  8  1  0  0  0  0
 17  1  1  0  0  0  0
 18  1  1  0  0  0  0
 19  2  1  0  0  0  0
 21  5  1  0  0  0  0
 22  7  1  0  0  0  0
M  END
