313277152.xyz
 OpenBabel08132112103D
NC(=O)c1cc(S)c(cc1F)C
 20 20  0  0  0  0  0  0  0  0999 V2000
    3.6626    0.6288    3.9337 N   0  0  0  0  0  0  0  0  0  0  0  0
    2.7000   -0.1633    4.5043 C   0  0  0  0  0  0  0  0  0  0  0  0
    2.9238   -0.8905    5.4513 O   0  0  0  0  0  0  0  0  0  0  0  0
    1.3564   -0.0937    3.8274 C   0  0  0  0  0  0  0  0  0  0  0  0
    1.2419    0.0000    2.4333 C   0  0  0  0  0  0  0  0  0  0  0  0
    0.0000    0.0000    1.7897 C   0  0  0  0  0  0  0  0  0  0  0  0
    0.0000    0.0000    0.0000 S   0  0  0  0  0  0  0  0  0  0  0  0
   -1.1897   -0.0840    2.5477 C   0  0  0  0  0  0  0  0  0  0  0  0
   -1.0762   -0.1468    3.9416 C   0  0  0  0  0  0  0  0  0  0  0  0
    0.1681   -0.1629    4.5645 C   0  0  0  0  0  0  0  0  0  0  0  0
    0.2036   -0.2149    5.8962 F   0  0  0  0  0  0  0  0  0  0  0  0
   -2.5424   -0.1036    1.8933 C   0  0  0  0  0  0  0  0  0  0  0  0
    3.4191    1.3932    3.3179 H   0  0  0  0  0  0  0  0  0  0  0  0
    4.5696    0.6460    4.3863 H   0  0  0  0  0  0  0  0  0  0  0  0
    2.1496    0.0524    1.8293 H   0  0  0  0  0  0  0  0  0  0  0  0
   -0.9585    0.9389   -0.1770 H   0  0  0  0  0  0  0  0  0  0  0  0
   -1.9671   -0.1985    4.5705 H   0  0  0  0  0  0  0  0  0  0  0  0
   -3.3330   -0.3421    2.6179 H   0  0  0  0  0  0  0  0  0  0  0  0
   -2.5686   -0.8422    1.0764 H   0  0  0  0  0  0  0  0  0  0  0  0
   -2.7854    0.8752    1.4432 H   0  0  0  0  0  0  0  0  0  0  0  0
  1 14  1  0  0  0  0
  1  2  1  0  0  0  0
  2  3  2  0  0  0  0
  4  2  1  0  0  0  0
  4 10  2  0  0  0  0
  5  4  1  0  0  0  0
  6  5  2  0  0  0  0
  6  8  1  0  0  0  0
  7  6  1  0  0  0  0
  8  9  2  0  0  0  0
  9 10  1  0  0  0  0
  9 17  1  0  0  0  0
 10 11  1  0  0  0  0
 12  8  1  0  0  0  0
 12 18  1  0  0  0  0
 13  1  1  0  0  0  0
 15  5  1  0  0  0  0
 16  7  1  0  0  0  0
 19 12  1  0  0  0  0
 20 12  1  0  0  0  0
M  END
