313229604.xyz
 OpenBabel08132112093D
COc1c(S)ccc(c1OC(F)F)Cl
 21 21  0  0  0  0  0  0  0  0999 V2000
   -3.0675    1.2674    1.7502 C   0  0  0  0  0  0  0  0  0  0  0  0
   -2.4070    0.0012    1.8500 O   0  0  0  0  0  0  0  0  0  0  0  0
   -1.2038    0.0252    2.5004 C   0  0  0  0  0  0  0  0  0  0  0  0
    0.0000   -0.0000    1.7730 C   0  0  0  0  0  0  0  0  0  0  0  0
    0.0000    0.0000    0.0000 S   0  0  0  0  0  0  0  0  0  0  0  0
    1.2162   -0.0000    2.4716 C   0  0  0  0  0  0  0  0  0  0  0  0
    1.2389    0.0286    3.8641 C   0  0  0  0  0  0  0  0  0  0  0  0
    0.0435    0.0353    4.5874 C   0  0  0  0  0  0  0  0  0  0  0  0
   -1.1810    0.0321    3.9057 C   0  0  0  0  0  0  0  0  0  0  0  0
   -2.3526    0.0988    4.6158 O   0  0  0  0  0  0  0  0  0  0  0  0
   -3.2841   -0.9031    4.4612 C   0  0  0  0  0  0  0  0  0  0  0  0
   -4.4484   -0.3513    4.0644 F   0  0  0  0  0  0  0  0  0  0  0  0
   -3.5040   -1.4751    5.6578 F   0  0  0  0  0  0  0  0  0  0  0  0
    0.0612    0.0420    6.3247 Cl  0  0  0  0  0  0  0  0  0  0  0  0
   -4.0104    1.0870    1.2182 H   0  0  0  0  0  0  0  0  0  0  0  0
   -3.2877    1.6748    2.7483 H   0  0  0  0  0  0  0  0  0  0  0  0
   -2.4479    1.9796    1.1807 H   0  0  0  0  0  0  0  0  0  0  0  0
   -1.3109   -0.3117   -0.1126 H   0  0  0  0  0  0  0  0  0  0  0  0
    2.1560   -0.0252    1.9165 H   0  0  0  0  0  0  0  0  0  0  0  0
    2.1857    0.0295    4.4051 H   0  0  0  0  0  0  0  0  0  0  0  0
   -2.9675   -1.6675    3.7345 H   0  0  0  0  0  0  0  0  0  0  0  0
  1  2  1  0  0  0  0
  1 16  1  0  0  0  0
  2  3  1  0  0  0  0
  3  9  2  0  0  0  0
  4  6  2  0  0  0  0
  4  3  1  0  0  0  0
  5  4  1  0  0  0  0
  6  7  1  0  0  0  0
  7 20  1  0  0  0  0
  7  8  2  0  0  0  0
  8 14  1  0  0  0  0
  9  8  1  0  0  0  0
  9 10  1  0  0  0  0
 11 10  1  0  0  0  0
 11 13  1  0  0  0  0
 12 11  1  0  0  0  0
 15  1  1  0  0  0  0
 17  1  1  0  0  0  0
 18  5  1  0  0  0  0
 19  6  1  0  0  0  0
 21 11  1  0  0  0  0
M  END
