313206063.xyz
 OpenBabel08132112093D
FC(Oc1cc(S)c(cc1C(=O)C)Cl)F
 22 22  0  0  0  0  0  0  0  0999 V2000
   -4.4251    0.7042    5.2259 F   0  0  0  0  0  0  0  0  0  0  0  0
   -3.2813    1.0658    4.6432 C   0  0  0  0  0  0  0  0  0  0  0  0
   -2.6145   -0.0998    4.3318 O   0  0  0  0  0  0  0  0  0  0  0  0
   -1.3546    0.0038    3.7947 C   0  0  0  0  0  0  0  0  0  0  0  0
   -1.2475   -0.0078    2.4078 C   0  0  0  0  0  0  0  0  0  0  0  0
    0.0000    0.0000    1.7626 C   0  0  0  0  0  0  0  0  0  0  0  0
    0.0000    0.0000    0.0000 S   0  0  0  0  0  0  0  0  0  0  0  0
    1.1529    0.0000    2.5745 C   0  0  0  0  0  0  0  0  0  0  0  0
    1.0447   -0.0043    3.9622 C   0  0  0  0  0  0  0  0  0  0  0  0
   -0.1995    0.0177    4.6100 C   0  0  0  0  0  0  0  0  0  0  0  0
   -0.2775    0.0601    6.1056 C   0  0  0  0  0  0  0  0  0  0  0  0
   -1.2451    0.5230    6.6783 O   0  0  0  0  0  0  0  0  0  0  0  0
    0.9008   -0.4819    6.8922 C   0  0  0  0  0  0  0  0  0  0  0  0
    2.7564   -0.0008    1.8726 Cl  0  0  0  0  0  0  0  0  0  0  0  0
   -3.5838    1.7385    3.5013 F   0  0  0  0  0  0  0  0  0  0  0  0
   -2.6974    1.7212    5.3050 H   0  0  0  0  0  0  0  0  0  0  0  0
   -2.1693   -0.0293    1.8253 H   0  0  0  0  0  0  0  0  0  0  0  0
    1.3436   -0.0013   -0.1436 H   0  0  0  0  0  0  0  0  0  0  0  0
    1.9650   -0.0070    4.5449 H   0  0  0  0  0  0  0  0  0  0  0  0
    0.6193   -0.5287    7.9515 H   0  0  0  0  0  0  0  0  0  0  0  0
    1.7717    0.1868    6.7915 H   0  0  0  0  0  0  0  0  0  0  0  0
    1.2052   -1.4771    6.5341 H   0  0  0  0  0  0  0  0  0  0  0  0
  2  1  1  0  0  0  0
  2 16  1  0  0  0  0
  3  2  1  0  0  0  0
  4  3  1  0  0  0  0
  4 10  2  0  0  0  0
  5  4  1  0  0  0  0
  6  5  2  0  0  0  0
  6  8  1  0  0  0  0
  7  6  1  0  0  0  0
  8  9  2  0  0  0  0
  9 19  1  0  0  0  0
  9 10  1  0  0  0  0
 10 11  1  0  0  0  0
 11 12  2  0  0  0  0
 11 13  1  0  0  0  0
 13 20  1  0  0  0  0
 14  8  1  0  0  0  0
 15  2  1  0  0  0  0
 17  5  1  0  0  0  0
 18  7  1  0  0  0  0
 21 13  1  0  0  0  0
 22 13  1  0  0  0  0
M  END
