313286499.xyz
 OpenBabel08132112103D
CCOC(=O)c1ccc(c(c1Cl)Br)S
 22 22  0  0  0  0  0  0  0  0999 V2000
   -0.6655   -0.5822    8.8473 C   0  0  0  0  0  0  0  0  0  0  0  0
   -0.1870    0.7131    8.2157 C   0  0  0  0  0  0  0  0  0  0  0  0
   -0.3647    0.6919    6.7882 O   0  0  0  0  0  0  0  0  0  0  0  0
    0.5628    0.0615    6.0624 C   0  0  0  0  0  0  0  0  0  0  0  0
    1.5847   -0.3961    6.5233 O   0  0  0  0  0  0  0  0  0  0  0  0
    0.2622    0.0333    4.5937 C   0  0  0  0  0  0  0  0  0  0  0  0
    1.3878    0.0054    3.7551 C   0  0  0  0  0  0  0  0  0  0  0  0
    1.2672    0.0000    2.3774 C   0  0  0  0  0  0  0  0  0  0  0  0
    0.0000    0.0000    1.7659 C   0  0  0  0  0  0  0  0  0  0  0  0
   -1.1425   -0.0091    2.5936 C   0  0  0  0  0  0  0  0  0  0  0  0
   -1.0148    0.0061    3.9993 C   0  0  0  0  0  0  0  0  0  0  0  0
   -2.4557   -0.0799    4.9682 Cl  0  0  0  0  0  0  0  0  0  0  0  0
   -2.8820   -0.0540    1.8179 Br  0  0  0  0  0  0  0  0  0  0  0  0
    0.0000    0.0000    0.0000 S   0  0  0  0  0  0  0  0  0  0  0  0
   -1.7091   -0.7888    8.5649 H   0  0  0  0  0  0  0  0  0  0  0  0
   -0.0375   -1.4256    8.5253 H   0  0  0  0  0  0  0  0  0  0  0  0
   -0.6080   -0.5100    9.9448 H   0  0  0  0  0  0  0  0  0  0  0  0
    0.8734    0.8979    8.4417 H   0  0  0  0  0  0  0  0  0  0  0  0
   -0.7849    1.5710    8.5531 H   0  0  0  0  0  0  0  0  0  0  0  0
    2.3706   -0.0083    4.2276 H   0  0  0  0  0  0  0  0  0  0  0  0
    2.1606   -0.0061    1.7497 H   0  0  0  0  0  0  0  0  0  0  0  0
   -1.3422   -0.0069   -0.1587 H   0  0  0  0  0  0  0  0  0  0  0  0
  1 17  1  0  0  0  0
  2 18  1  0  0  0  0
  2 19  1  0  0  0  0
  2  1  1  0  0  0  0
  3  2  1  0  0  0  0
  4  5  2  0  0  0  0
  4  3  1  0  0  0  0
  6  4  1  0  0  0  0
  7 20  1  0  0  0  0
  7  6  2  0  0  0  0
  8  7  1  0  0  0  0
  9  8  2  0  0  0  0
  9 10  1  0  0  0  0
 10 11  2  0  0  0  0
 11  6  1  0  0  0  0
 11 12  1  0  0  0  0
 13 10  1  0  0  0  0
 14  9  1  0  0  0  0
 15  1  1  0  0  0  0
 16  1  1  0  0  0  0
 21  8  1  0  0  0  0
 22 14  1  0  0  0  0
M  END
