313295335.xyz
 OpenBabel08132112103D
Sc1ccc(c(c1OC(F)(F)F)F)C(=O)O
 20 20  0  0  0  0  0  0  0  0999 V2000
    0.0000    0.0000    0.0000 S   0  0  0  0  0  0  0  0  0  0  0  0
    0.0000   -0.0000    1.7633 C   0  0  0  0  0  0  0  0  0  0  0  0
   -1.2292    0.0067    2.4459 C   0  0  0  0  0  0  0  0  0  0  0  0
   -1.2626    0.0311    3.8344 C   0  0  0  0  0  0  0  0  0  0  0  0
   -0.0863    0.0331    4.6052 C   0  0  0  0  0  0  0  0  0  0  0  0
    1.1333    0.0005    3.9183 C   0  0  0  0  0  0  0  0  0  0  0  0
    1.1815    0.0000    2.5219 C   0  0  0  0  0  0  0  0  0  0  0  0
    2.4016   -0.0663    1.8757 O   0  0  0  0  0  0  0  0  0  0  0  0
    3.2726    0.9876    1.8869 C   0  0  0  0  0  0  0  0  0  0  0  0
    4.3590    0.6926    2.5894 F   0  0  0  0  0  0  0  0  0  0  0  0
    3.6480    1.2331    0.6293 F   0  0  0  0  0  0  0  0  0  0  0  0
    2.7221    2.0927    2.3888 F   0  0  0  0  0  0  0  0  0  0  0  0
    2.2887    0.0176    4.5694 F   0  0  0  0  0  0  0  0  0  0  0  0
   -0.1213   -0.0103    6.1053 C   0  0  0  0  0  0  0  0  0  0  0  0
    0.6732   -0.5997    6.7817 O   0  0  0  0  0  0  0  0  0  0  0  0
   -1.1579    0.6554    6.6705 O   0  0  0  0  0  0  0  0  0  0  0  0
    1.3385   -0.1099   -0.1455 H   0  0  0  0  0  0  0  0  0  0  0  0
   -2.1599   -0.0131    1.8763 H   0  0  0  0  0  0  0  0  0  0  0  0
   -2.2314    0.0127    4.3394 H   0  0  0  0  0  0  0  0  0  0  0  0
   -1.6037    1.2066    6.0119 H   0  0  0  0  0  0  0  0  0  0  0  0
  1  2  1  0  0  0  0
  2  3  2  0  0  0  0
  2  7  1  0  0  0  0
  3  4  1  0  0  0  0
  4 19  1  0  0  0  0
  4  5  2  0  0  0  0
  5 14  1  0  0  0  0
  6 13  1  0  0  0  0
  6  5  1  0  0  0  0
  7  6  2  0  0  0  0
  8  9  1  0  0  0  0
  8  7  1  0  0  0  0
  9 12  1  0  0  0  0
  9 10  1  0  0  0  0
 11  9  1  0  0  0  0
 14 16  1  0  0  0  0
 14 15  2  0  0  0  0
 17  1  1  0  0  0  0
 18  3  1  0  0  0  0
 20 16  1  0  0  0  0
M  END
