313261610.xyz
 OpenBabel08132112093D
FC(Oc1c(Cl)c(S)ccc1C(F)(F)F)F
 20 20  0  0  0  0  0  0  0  0999 V2000
    2.1877    2.1934    5.0763 F   0  0  0  0  0  0  0  0  0  0  0  0
    2.9600    1.1047    4.8927 C   0  0  0  0  0  0  0  0  0  0  0  0
    2.1720   -0.0312    4.7678 O   0  0  0  0  0  0  0  0  0  0  0  0
    1.0558    0.0045    3.9740 C   0  0  0  0  0  0  0  0  0  0  0  0
    1.1558   -0.0000    2.5729 C   0  0  0  0  0  0  0  0  0  0  0  0
    2.7497   -0.0458    1.8562 Cl  0  0  0  0  0  0  0  0  0  0  0  0
   -0.0000   -0.0000    1.7663 C   0  0  0  0  0  0  0  0  0  0  0  0
    0.0000    0.0000    0.0000 S   0  0  0  0  0  0  0  0  0  0  0  0
   -1.2518   -0.0133    2.4044 C   0  0  0  0  0  0  0  0  0  0  0  0
   -1.3503   -0.0398    3.7898 C   0  0  0  0  0  0  0  0  0  0  0  0
   -0.2036   -0.0276    4.5879 C   0  0  0  0  0  0  0  0  0  0  0  0
   -0.3121   -0.1016    6.0945 C   0  0  0  0  0  0  0  0  0  0  0  0
    0.2305   -1.2317    6.5723 F   0  0  0  0  0  0  0  0  0  0  0  0
    0.2975    0.9265    6.7024 F   0  0  0  0  0  0  0  0  0  0  0  0
   -1.6011   -0.0843    6.4830 F   0  0  0  0  0  0  0  0  0  0  0  0
    3.7138    0.9153    5.9759 F   0  0  0  0  0  0  0  0  0  0  0  0
    3.6028    1.2733    4.0139 H   0  0  0  0  0  0  0  0  0  0  0  0
    1.3403    0.0527   -0.1556 H   0  0  0  0  0  0  0  0  0  0  0  0
   -2.1579   -0.0130    1.7955 H   0  0  0  0  0  0  0  0  0  0  0  0
   -2.3302   -0.0650    4.2657 H   0  0  0  0  0  0  0  0  0  0  0  0
  2  1  1  0  0  0  0
  2 16  1  0  0  0  0
  3  2  1  0  0  0  0
  4 11  1  0  0  0  0
  4  3  1  0  0  0  0
  5  4  2  0  0  0  0
  6  5  1  0  0  0  0
  7  9  2  0  0  0  0
  7  5  1  0  0  0  0
  8  7  1  0  0  0  0
  9 10  1  0  0  0  0
 10 20  1  0  0  0  0
 10 11  2  0  0  0  0
 11 12  1  0  0  0  0
 12 15  1  0  0  0  0
 12 13  1  0  0  0  0
 12 14  1  0  0  0  0
 17  2  1  0  0  0  0
 18  8  1  0  0  0  0
 19  9  1  0  0  0  0
M  END
