313217025.xyz
 OpenBabel08132112093D
N#Cc1cc(Cl)cc(c1C(=O)N)S
 18 18  0  0  0  0  0  0  0  0999 V2000
    2.9397   -0.1396    5.6916 N   0  0  0  0  0  0  0  0  0  0  0  0
    2.0784   -0.1073    4.9138 C   0  0  0  0  0  0  0  0  0  0  0  0
    0.9733   -0.0393    3.9962 C   0  0  0  0  0  0  0  0  0  0  0  0
   -0.3018   -0.0315    4.5792 C   0  0  0  0  0  0  0  0  0  0  0  0
   -1.4188    0.0235    3.7466 C   0  0  0  0  0  0  0  0  0  0  0  0
   -3.0094    0.0523    4.4502 Cl  0  0  0  0  0  0  0  0  0  0  0  0
   -1.2749    0.0321    2.3645 C   0  0  0  0  0  0  0  0  0  0  0  0
    0.0000   -0.0000    1.7688 C   0  0  0  0  0  0  0  0  0  0  0  0
    1.1585   -0.0000    2.5890 C   0  0  0  0  0  0  0  0  0  0  0  0
    2.5370    0.0153    1.9701 C   0  0  0  0  0  0  0  0  0  0  0  0
    2.7894   -0.5942    0.9349 O   0  0  0  0  0  0  0  0  0  0  0  0
    3.4801    0.7673    2.5854 N   0  0  0  0  0  0  0  0  0  0  0  0
    0.0000    0.0000    0.0000 S   0  0  0  0  0  0  0  0  0  0  0  0
   -0.4141   -0.0710    5.6617 H   0  0  0  0  0  0  0  0  0  0  0  0
   -2.1632    0.0415    1.7314 H   0  0  0  0  0  0  0  0  0  0  0  0
    3.3363    1.2317    3.4716 H   0  0  0  0  0  0  0  0  0  0  0  0
    4.4246    0.7087    2.2207 H   0  0  0  0  0  0  0  0  0  0  0  0
    1.2918   -0.4198   -0.1017 H   0  0  0  0  0  0  0  0  0  0  0  0
  2  1  3  0  0  0  0
  3  4  1  0  0  0  0
  3  2  1  0  0  0  0
  4 14  1  0  0  0  0
  5  6  1  0  0  0  0
  5  4  2  0  0  0  0
  7  5  1  0  0  0  0
  8  7  2  0  0  0  0
  8  9  1  0  0  0  0
  9  3  2  0  0  0  0
 10 12  1  0  0  0  0
 10  9  1  0  0  0  0
 11 10  2  0  0  0  0
 12 16  1  0  0  0  0
 13  8  1  0  0  0  0
 15  7  1  0  0  0  0
 17 12  1  0  0  0  0
 18 13  1  0  0  0  0
M  END
