313292326.xyz
 OpenBabel08132112103D
[O-][N+](=O)c1ccc(c(c1I)C)S
 18 18  0  0  0  0  0  0  0  0999 V2000
    1.3848    0.5161    6.4464 O   0  0  0  0  0  0  0  0  0  0  0  0
    0.4535   -0.1411    6.0088 N   0  0  0  0  0  0  0  0  0  0  0  0
   -0.2645   -0.8712    6.6666 O   0  0  0  0  0  0  0  0  0  0  0  0
    0.2232   -0.0727    4.5516 C   0  0  0  0  0  0  0  0  0  0  0  0
    1.3767   -0.0404    3.7685 C   0  0  0  0  0  0  0  0  0  0  0  0
    1.2646   -0.0000    2.3880 C   0  0  0  0  0  0  0  0  0  0  0  0
    0.0000   -0.0000    1.7834 C   0  0  0  0  0  0  0  0  0  0  0  0
   -1.1861   -0.0432    2.5600 C   0  0  0  0  0  0  0  0  0  0  0  0
   -1.0528   -0.0501    3.9668 C   0  0  0  0  0  0  0  0  0  0  0  0
   -2.8022    0.1192    5.1752 I   0  0  0  0  0  0  0  0  0  0  0  0
   -2.5243   -0.0785    1.8738 C   0  0  0  0  0  0  0  0  0  0  0  0
    0.0000    0.0000    0.0000 S   0  0  0  0  0  0  0  0  0  0  0  0
    2.3475   -0.0286    4.2632 H   0  0  0  0  0  0  0  0  0  0  0  0
    2.1608    0.0500    1.7674 H   0  0  0  0  0  0  0  0  0  0  0  0
   -3.2987   -0.5078    2.5190 H   0  0  0  0  0  0  0  0  0  0  0  0
   -2.8605    0.9357    1.5934 H   0  0  0  0  0  0  0  0  0  0  0  0
   -2.4609   -0.6768    0.9538 H   0  0  0  0  0  0  0  0  0  0  0  0
   -1.1006    0.7602   -0.1874 H   0  0  0  0  0  0  0  0  0  0  0  0
  2  1  2  0  0  0  0
  2  3  2  0  0  0  0
  4  2  1  0  0  0  0
  5 13  1  0  0  0  0
  5  4  2  0  0  0  0
  6  5  1  0  0  0  0
  7  6  2  0  0  0  0
  7  8  1  0  0  0  0
  8  9  2  0  0  0  0
  9  4  1  0  0  0  0
  9 10  1  0  0  0  0
 11 15  1  0  0  0  0
 11  8  1  0  0  0  0
 12  7  1  0  0  0  0
 14  6  1  0  0  0  0
 16 11  1  0  0  0  0
 17 11  1  0  0  0  0
 18 12  1  0  0  0  0
M  END
