313259439.xyz
 OpenBabel08132112093D
ClCC(=O)c1cc(S)c(c(c1)Cl)OC
 22 22  0  0  0  0  0  0  0  0999 V2000
    4.2632    0.0467    6.7246 Cl  0  0  0  0  0  0  0  0  0  0  0  0
    2.6183    0.0378    6.0440 C   0  0  0  0  0  0  0  0  0  0  0  0
    2.6046    0.0258    4.5149 C   0  0  0  0  0  0  0  0  0  0  0  0
    3.6217    0.0203    3.8622 O   0  0  0  0  0  0  0  0  0  0  0  0
    1.2530    0.0219    3.8601 C   0  0  0  0  0  0  0  0  0  0  0  0
    1.2167   -0.0000    2.4595 C   0  0  0  0  0  0  0  0  0  0  0  0
    0.0000   -0.0000    1.7735 C   0  0  0  0  0  0  0  0  0  0  0  0
    0.0000    0.0000    0.0000 S   0  0  0  0  0  0  0  0  0  0  0  0
   -1.2130    0.0165    2.4989 C   0  0  0  0  0  0  0  0  0  0  0  0
   -1.1619    0.0228    3.9026 C   0  0  0  0  0  0  0  0  0  0  0  0
    0.0527    0.0263    4.5863 C   0  0  0  0  0  0  0  0  0  0  0  0
   -2.6554    0.0136    4.8052 Cl  0  0  0  0  0  0  0  0  0  0  0  0
   -2.3992   -0.0088    1.8357 O   0  0  0  0  0  0  0  0  0  0  0  0
   -3.0343    1.2592    1.6582 C   0  0  0  0  0  0  0  0  0  0  0  0
    2.0856    0.9268    6.4125 H   0  0  0  0  0  0  0  0  0  0  0  0
    2.0897   -0.8482    6.4257 H   0  0  0  0  0  0  0  0  0  0  0  0
    2.1652   -0.0193    1.9205 H   0  0  0  0  0  0  0  0  0  0  0  0
   -1.3020   -0.3468   -0.1130 H   0  0  0  0  0  0  0  0  0  0  0  0
    0.0308    0.0292    5.6751 H   0  0  0  0  0  0  0  0  0  0  0  0
   -3.9642    1.0693    1.1067 H   0  0  0  0  0  0  0  0  0  0  0  0
   -3.2752    1.7177    2.6300 H   0  0  0  0  0  0  0  0  0  0  0  0
   -2.3909    1.9389    1.0747 H   0  0  0  0  0  0  0  0  0  0  0  0
  2 15  1  0  0  0  0
  2 16  1  0  0  0  0
  2  1  1  0  0  0  0
  3  2  1  0  0  0  0
  4  3  2  0  0  0  0
  5  3  1  0  0  0  0
  5 11  2  0  0  0  0
  6  5  1  0  0  0  0
  7  6  2  0  0  0  0
  7  9  1  0  0  0  0
  8  7  1  0  0  0  0
  9 10  2  0  0  0  0
 10 11  1  0  0  0  0
 10 12  1  0  0  0  0
 11 19  1  0  0  0  0
 13  9  1  0  0  0  0
 14 13  1  0  0  0  0
 14 21  1  0  0  0  0
 17  6  1  0  0  0  0
 18  8  1  0  0  0  0
 20 14  1  0  0  0  0
 22 14  1  0  0  0  0
M  END
