313201989.xyz
 OpenBabel08132112093D
OCc1c(S)ccc(c1Cl)C(F)F
 20 20  0  0  0  0  0  0  0  0999 V2000
   -2.8021   -1.0444    1.0380 O   0  0  0  0  0  0  0  0  0  0  0  0
   -2.5314    0.1110    1.8248 C   0  0  0  0  0  0  0  0  0  0  0  0
   -1.1980    0.0430    2.5353 C   0  0  0  0  0  0  0  0  0  0  0  0
    0.0000   -0.0000    1.7784 C   0  0  0  0  0  0  0  0  0  0  0  0
    0.0000    0.0000    0.0000 S   0  0  0  0  0  0  0  0  0  0  0  0
    1.2439    0.0000    2.4207 C   0  0  0  0  0  0  0  0  0  0  0  0
    1.3089    0.0223    3.8098 C   0  0  0  0  0  0  0  0  0  0  0  0
    0.1518    0.0215    4.5923 C   0  0  0  0  0  0  0  0  0  0  0  0
   -1.0927    0.0240    3.9367 C   0  0  0  0  0  0  0  0  0  0  0  0
   -2.5518    0.0159    4.9096 Cl  0  0  0  0  0  0  0  0  0  0  0  0
    0.3027    0.0092    6.0916 C   0  0  0  0  0  0  0  0  0  0  0  0
   -0.2794    1.0965    6.6641 F   0  0  0  0  0  0  0  0  0  0  0  0
   -0.2693   -1.0955    6.6424 F   0  0  0  0  0  0  0  0  0  0  0  0
   -2.7871   -1.8159    1.6214 H   0  0  0  0  0  0  0  0  0  0  0  0
   -3.3409    0.2999    2.5429 H   0  0  0  0  0  0  0  0  0  0  0  0
   -2.5053    0.9502    1.1120 H   0  0  0  0  0  0  0  0  0  0  0  0
   -1.1812   -0.6562   -0.1274 H   0  0  0  0  0  0  0  0  0  0  0  0
    2.1583   -0.0357    1.8259 H   0  0  0  0  0  0  0  0  0  0  0  0
    2.2843    0.0200    4.3033 H   0  0  0  0  0  0  0  0  0  0  0  0
    1.3707    0.0114    6.3714 H   0  0  0  0  0  0  0  0  0  0  0  0
  1 14  1  0  0  0  0
  1  2  1  0  0  0  0
  2  3  1  0  0  0  0
  2 15  1  0  0  0  0
  3  9  2  0  0  0  0
  4  6  2  0  0  0  0
  4  3  1  0  0  0  0
  5  4  1  0  0  0  0
  6  7  1  0  0  0  0
  7 19  1  0  0  0  0
  7  8  2  0  0  0  0
  8 11  1  0  0  0  0
  9  8  1  0  0  0  0
  9 10  1  0  0  0  0
 11 20  1  0  0  0  0
 11 13  1  0  0  0  0
 11 12  1  0  0  0  0
 16  2  1  0  0  0  0
 17  5  1  0  0  0  0
 18  6  1  0  0  0  0
M  END
