313275814.xyz
 OpenBabel08132112093D
CCOC(=O)c1cc(F)c(c(c1)S)F
 22 22  0  0  0  0  0  0  0  0999 V2000
   -5.9491   -0.0015    3.3929 C   0  0  0  0  0  0  0  0  0  0  0  0
   -4.8877   -0.0001    4.4708 C   0  0  0  0  0  0  0  0  0  0  0  0
   -3.6036   -0.0003    3.8256 O   0  0  0  0  0  0  0  0  0  0  0  0
   -2.5270    0.0001    4.6278 C   0  0  0  0  0  0  0  0  0  0  0  0
   -2.5937    0.0005    5.8352 O   0  0  0  0  0  0  0  0  0  0  0  0
   -1.2451    0.0001    3.8608 C   0  0  0  0  0  0  0  0  0  0  0  0
   -0.0515    0.0002    4.5972 C   0  0  0  0  0  0  0  0  0  0  0  0
    1.1541    0.0001    3.9142 C   0  0  0  0  0  0  0  0  0  0  0  0
    2.3134    0.0002    4.5746 F   0  0  0  0  0  0  0  0  0  0  0  0
    1.1860    0.0000    2.5162 C   0  0  0  0  0  0  0  0  0  0  0  0
    0.0000   -0.0000    1.7718 C   0  0  0  0  0  0  0  0  0  0  0  0
   -1.2206    0.0000    2.4622 C   0  0  0  0  0  0  0  0  0  0  0  0
    0.0000    0.0000    0.0000 S   0  0  0  0  0  0  0  0  0  0  0  0
    2.3726   -0.0001    1.8985 F   0  0  0  0  0  0  0  0  0  0  0  0
   -5.8608   -0.8944    2.7552 H   0  0  0  0  0  0  0  0  0  0  0  0
   -6.9499   -0.0014    3.8511 H   0  0  0  0  0  0  0  0  0  0  0  0
   -5.8614    0.8903    2.7535 H   0  0  0  0  0  0  0  0  0  0  0  0
   -4.9571    0.8858    5.1223 H   0  0  0  0  0  0  0  0  0  0  0  0
   -4.9565   -0.8848    5.1239 H   0  0  0  0  0  0  0  0  0  0  0  0
   -0.0740    0.0002    5.6869 H   0  0  0  0  0  0  0  0  0  0  0  0
   -2.1600   -0.0000    1.9099 H   0  0  0  0  0  0  0  0  0  0  0  0
    1.3429    0.0004   -0.1433 H   0  0  0  0  0  0  0  0  0  0  0  0
  1 16  1  0  0  0  0
  1  2  1  0  0  0  0
  2 18  1  0  0  0  0
  2 19  1  0  0  0  0
  3  2  1  0  0  0  0
  3  4  1  0  0  0  0
  4  5  2  0  0  0  0
  6  7  2  0  0  0  0
  6  4  1  0  0  0  0
  7 20  1  0  0  0  0
  8  9  1  0  0  0  0
  8  7  1  0  0  0  0
 10  8  2  0  0  0  0
 11 12  2  0  0  0  0
 11 10  1  0  0  0  0
 12  6  1  0  0  0  0
 13 11  1  0  0  0  0
 14 10  1  0  0  0  0
 15  1  1  0  0  0  0
 17  1  1  0  0  0  0
 21 12  1  0  0  0  0
 22 13  1  0  0  0  0
M  END
