313260443.xyz
 OpenBabel08132112093D
OCc1cc(I)c(cc1S)Cl
 17 17  0  0  0  0  0  0  0  0999 V2000
   -3.6294   -0.0001    2.5499 O   0  0  0  0  0  0  0  0  0  0  0  0
   -2.5336   -0.0000    1.6692 C   0  0  0  0  0  0  0  0  0  0  0  0
   -1.2420    0.0001    2.4489 C   0  0  0  0  0  0  0  0  0  0  0  0
   -1.2595    0.0002    3.8441 C   0  0  0  0  0  0  0  0  0  0  0  0
   -0.0763    0.0002    4.5895 C   0  0  0  0  0  0  0  0  0  0  0  0
   -0.2057    0.0003    6.7030 I   0  0  0  0  0  0  0  0  0  0  0  0
    1.1545    0.0001    3.9195 C   0  0  0  0  0  0  0  0  0  0  0  0
    1.1857   -0.0000    2.5214 C   0  0  0  0  0  0  0  0  0  0  0  0
    0.0000   -0.0000    1.7805 C   0  0  0  0  0  0  0  0  0  0  0  0
    0.0000    0.0000    0.0000 S   0  0  0  0  0  0  0  0  0  0  0  0
    2.6746    0.0000    4.7685 Cl  0  0  0  0  0  0  0  0  0  0  0  0
   -4.4410   -0.0003    2.0299 H   0  0  0  0  0  0  0  0  0  0  0  0
   -2.5398    0.8881    1.0018 H   0  0  0  0  0  0  0  0  0  0  0  0
   -2.5396   -0.8881    1.0019 H   0  0  0  0  0  0  0  0  0  0  0  0
   -2.2273    0.0002    4.3430 H   0  0  0  0  0  0  0  0  0  0  0  0
    2.1566   -0.0000    2.0242 H   0  0  0  0  0  0  0  0  0  0  0  0
    1.3424   -0.0008   -0.1492 H   0  0  0  0  0  0  0  0  0  0  0  0
  2  3  1  0  0  0  0
  2  1  1  0  0  0  0
  3  4  1  0  0  0  0
  4 15  1  0  0  0  0
  4  5  2  0  0  0  0
  5  6  1  0  0  0  0
  7  5  1  0  0  0  0
  7 11  1  0  0  0  0
  8  7  2  0  0  0  0
  9  3  2  0  0  0  0
  9  8  1  0  0  0  0
 10  9  1  0  0  0  0
 12  1  1  0  0  0  0
 13  2  1  0  0  0  0
 14  2  1  0  0  0  0
 16  8  1  0  0  0  0
 17 10  1  0  0  0  0
M  END
