313257249.xyz
 OpenBabel08132112093D
FC(Oc1ccc(c(c1OC(F)(F)F)S)Cl)F
 21 21  0  0  0  0  0  0  0  0999 V2000
    2.0038    0.0969    6.7823 F   0  0  0  0  0  0  0  0  0  0  0  0
    2.4945   -0.6406    5.7553 C   0  0  0  0  0  0  0  0  0  0  0  0
    2.3495    0.0318    4.5679 O   0  0  0  0  0  0  0  0  0  0  0  0
    1.1345    0.0007    3.9337 C   0  0  0  0  0  0  0  0  0  0  0  0
   -0.0928    0.0086    4.5988 C   0  0  0  0  0  0  0  0  0  0  0  0
   -1.2715   -0.0080    3.8511 C   0  0  0  0  0  0  0  0  0  0  0  0
   -1.2276   -0.0120    2.4595 C   0  0  0  0  0  0  0  0  0  0  0  0
   -0.0000    0.0000    1.7657 C   0  0  0  0  0  0  0  0  0  0  0  0
    1.1765    0.0000    2.5324 C   0  0  0  0  0  0  0  0  0  0  0  0
    2.3976   -0.0819    1.8877 O   0  0  0  0  0  0  0  0  0  0  0  0
    3.2599    0.9765    1.8478 C   0  0  0  0  0  0  0  0  0  0  0  0
    4.4140    0.6502    2.4153 F   0  0  0  0  0  0  0  0  0  0  0  0
    3.5063    1.2807    0.5667 F   0  0  0  0  0  0  0  0  0  0  0  0
    2.7692    2.0589    2.4464 F   0  0  0  0  0  0  0  0  0  0  0  0
    0.0000    0.0000    0.0000 S   0  0  0  0  0  0  0  0  0  0  0  0
   -2.7160   -0.0213    1.5528 Cl  0  0  0  0  0  0  0  0  0  0  0  0
    3.8020   -0.8020    5.9568 F   0  0  0  0  0  0  0  0  0  0  0  0
    1.9775   -1.6174    5.7487 H   0  0  0  0  0  0  0  0  0  0  0  0
   -0.1271    0.0518    5.6864 H   0  0  0  0  0  0  0  0  0  0  0  0
   -2.2408   -0.0044    4.3507 H   0  0  0  0  0  0  0  0  0  0  0  0
    1.3450   -0.0446   -0.1203 H   0  0  0  0  0  0  0  0  0  0  0  0
  2 17  1  0  0  0  0
  2  1  1  0  0  0  0
  3  2  1  0  0  0  0
  4  3  1  0  0  0  0
  4  5  1  0  0  0  0
  5 19  1  0  0  0  0
  6 20  1  0  0  0  0
  6  5  2  0  0  0  0
  7  6  1  0  0  0  0
  8  7  2  0  0  0  0
  8  9  1  0  0  0  0
  9  4  2  0  0  0  0
 10  9  1  0  0  0  0
 11 10  1  0  0  0  0
 11 12  1  0  0  0  0
 11 14  1  0  0  0  0
 13 11  1  0  0  0  0
 15  8  1  0  0  0  0
 16  7  1  0  0  0  0
 18  2  1  0  0  0  0
 21 15  1  0  0  0  0
M  END
