313283942.xyz
 OpenBabel08132112103D
CCOC(=O)Cc1cc(S)c(c(c1)Cl)Br
 25 25  0  0  0  0  0  0  0  0999 V2000
    4.2056    3.4723    1.4692 C   0  0  0  0  0  0  0  0  0  0  0  0
    4.0661    3.2260    2.9554 C   0  0  0  0  0  0  0  0  0  0  0  0
    3.6301    1.8674    3.1355 O   0  0  0  0  0  0  0  0  0  0  0  0
    3.3349    1.4818    4.3879 C   0  0  0  0  0  0  0  0  0  0  0  0
    3.4696    2.1834    5.3577 O   0  0  0  0  0  0  0  0  0  0  0  0
    2.7850    0.0631    4.3993 C   0  0  0  0  0  0  0  0  0  0  0  0
    1.4098    0.0059    3.7691 C   0  0  0  0  0  0  0  0  0  0  0  0
    1.2647   -0.0000    2.3811 C   0  0  0  0  0  0  0  0  0  0  0  0
    0.0000   -0.0000    1.7718 C   0  0  0  0  0  0  0  0  0  0  0  0
    0.0000    0.0000    0.0000 S   0  0  0  0  0  0  0  0  0  0  0  0
   -1.1504    0.0029    2.5902 C   0  0  0  0  0  0  0  0  0  0  0  0
   -1.0013    0.0111    3.9881 C   0  0  0  0  0  0  0  0  0  0  0  0
    0.2661    0.0165    4.5731 C   0  0  0  0  0  0  0  0  0  0  0  0
   -2.3865    0.0163    5.0421 Cl  0  0  0  0  0  0  0  0  0  0  0  0
   -2.8962   -0.0041    1.8357 Br  0  0  0  0  0  0  0  0  0  0  0  0
    4.5366    4.5064    1.2878 H   0  0  0  0  0  0  0  0  0  0  0  0
    4.9456    2.7893    1.0248 H   0  0  0  0  0  0  0  0  0  0  0  0
    3.2434    3.3207    0.9563 H   0  0  0  0  0  0  0  0  0  0  0  0
    3.3291    3.8988    3.4216 H   0  0  0  0  0  0  0  0  0  0  0  0
    5.0181    3.3676    3.4924 H   0  0  0  0  0  0  0  0  0  0  0  0
    3.4813   -0.5827    3.8428 H   0  0  0  0  0  0  0  0  0  0  0  0
    2.7513   -0.2666    5.4447 H   0  0  0  0  0  0  0  0  0  0  0  0
    2.1549    0.0134    1.7498 H   0  0  0  0  0  0  0  0  0  0  0  0
   -1.3421    0.0052   -0.1573 H   0  0  0  0  0  0  0  0  0  0  0  0
    0.3458    0.0300    5.6605 H   0  0  0  0  0  0  0  0  0  0  0  0
  1  2  1  0  0  0  0
  2  3  1  0  0  0  0
  2 19  1  0  0  0  0
  2 20  1  0  0  0  0
  3  4  1  0  0  0  0
  4  6  1  0  0  0  0
  4  5  2  0  0  0  0
  6 22  1  0  0  0  0
  7  6  1  0  0  0  0
  7 13  2  0  0  0  0
  8  7  1  0  0  0  0
  9  8  2  0  0  0  0
  9 11  1  0  0  0  0
 10  9  1  0  0  0  0
 11 12  2  0  0  0  0
 12 13  1  0  0  0  0
 12 14  1  0  0  0  0
 13 25  1  0  0  0  0
 15 11  1  0  0  0  0
 16  1  1  0  0  0  0
 17  1  1  0  0  0  0
 18  1  1  0  0  0  0
 21  6  1  0  0  0  0
 23  8  1  0  0  0  0
 24 10  1  0  0  0  0
M  END
