313211917.xyz
 OpenBabel08132112093D
CCOc1c(S)cc(cc1C#N)Cl
 21 21  0  0  0  0  0  0  0  0999 V2000
    4.3988    0.9463    0.9909 C   0  0  0  0  0  0  0  0  0  0  0  0
    3.0740    1.2178    1.6654 C   0  0  0  0  0  0  0  0  0  0  0  0
    2.3982   -0.0443    1.8415 O   0  0  0  0  0  0  0  0  0  0  0  0
    1.2087   -0.0000    2.4966 C   0  0  0  0  0  0  0  0  0  0  0  0
    0.0000    0.0000    1.7718 C   0  0  0  0  0  0  0  0  0  0  0  0
    0.0000    0.0000    0.0000 S   0  0  0  0  0  0  0  0  0  0  0  0
   -1.2198    0.0125    2.4610 C   0  0  0  0  0  0  0  0  0  0  0  0
   -1.2359    0.0336    3.8577 C   0  0  0  0  0  0  0  0  0  0  0  0
   -0.0536    0.0226    4.5942 C   0  0  0  0  0  0  0  0  0  0  0  0
    1.1711    0.0020    3.9055 C   0  0  0  0  0  0  0  0  0  0  0  0
    2.4078   -0.0160    4.6312 C   0  0  0  0  0  0  0  0  0  0  0  0
    3.4099   -0.0168    5.2168 N   0  0  0  0  0  0  0  0  0  0  0  0
   -2.7664    0.0561    4.6935 Cl  0  0  0  0  0  0  0  0  0  0  0  0
    5.0137    0.2780    1.6118 H   0  0  0  0  0  0  0  0  0  0  0  0
    4.2505    0.4719    0.0085 H   0  0  0  0  0  0  0  0  0  0  0  0
    4.9464    1.8893    0.8417 H   0  0  0  0  0  0  0  0  0  0  0  0
    2.4327    1.8815    1.0585 H   0  0  0  0  0  0  0  0  0  0  0  0
    3.2214    1.6881    2.6519 H   0  0  0  0  0  0  0  0  0  0  0  0
    1.2996   -0.3598   -0.1050 H   0  0  0  0  0  0  0  0  0  0  0  0
   -2.1619    0.0013    1.9114 H   0  0  0  0  0  0  0  0  0  0  0  0
   -0.0746    0.0253    5.6831 H   0  0  0  0  0  0  0  0  0  0  0  0
  1 14  1  0  0  0  0
  1  2  1  0  0  0  0
  2  3  1  0  0  0  0
  2 18  1  0  0  0  0
  3  4  1  0  0  0  0
  4 10  2  0  0  0  0
  5  7  2  0  0  0  0
  5  4  1  0  0  0  0
  6  5  1  0  0  0  0
  7  8  1  0  0  0  0
  8  9  2  0  0  0  0
  8 13  1  0  0  0  0
  9 21  1  0  0  0  0
 10  9  1  0  0  0  0
 10 11  1  0  0  0  0
 11 12  3  0  0  0  0
 15  1  1  0  0  0  0
 16  1  1  0  0  0  0
 17  2  1  0  0  0  0
 19  6  1  0  0  0  0
 20  7  1  0  0  0  0
M  END
