313230188.xyz
 OpenBabel08132112093D
CCOc1cc(C(=O)CBr)c(cc1Cl)S
 25 25  0  0  0  0  0  0  0  0999 V2000
   -0.1640   -0.0332    8.2569 C   0  0  0  0  0  0  0  0  0  0  0  0
   -0.6829   -0.0286    6.8345 C   0  0  0  0  0  0  0  0  0  0  0  0
    0.4419   -0.0284    5.9621 O   0  0  0  0  0  0  0  0  0  0  0  0
    0.2442   -0.0182    4.6328 C   0  0  0  0  0  0  0  0  0  0  0  0
   -1.0006   -0.0074    4.0100 C   0  0  0  0  0  0  0  0  0  0  0  0
   -1.1569    0.0059    2.6082 C   0  0  0  0  0  0  0  0  0  0  0  0
   -2.5999   -0.0216    2.1736 C   0  0  0  0  0  0  0  0  0  0  0  0
   -3.4669   -0.3353    2.9668 O   0  0  0  0  0  0  0  0  0  0  0  0
   -3.0327    0.3728    0.7735 C   0  0  0  0  0  0  0  0  0  0  0  0
   -2.5750    2.2516    0.4152 Br  0  0  0  0  0  0  0  0  0  0  0  0
   -0.0000    0.0000    1.7972 C   0  0  0  0  0  0  0  0  0  0  0  0
    1.2594   -0.0000    2.4220 C   0  0  0  0  0  0  0  0  0  0  0  0
    1.3889   -0.0183    3.8035 C   0  0  0  0  0  0  0  0  0  0  0  0
    2.9663   -0.0221    4.5290 Cl  0  0  0  0  0  0  0  0  0  0  0  0
    0.0000    0.0000    0.0000 S   0  0  0  0  0  0  0  0  0  0  0  0
    0.4544    0.8570    8.4460 H   0  0  0  0  0  0  0  0  0  0  0  0
    0.4517   -0.9263    8.4414 H   0  0  0  0  0  0  0  0  0  0  0  0
   -1.0050   -0.0338    8.9668 H   0  0  0  0  0  0  0  0  0  0  0  0
   -1.3078   -0.9182    6.6348 H   0  0  0  0  0  0  0  0  0  0  0  0
   -1.3043    0.8644    6.6393 H   0  0  0  0  0  0  0  0  0  0  0  0
   -1.9174   -0.0256    4.5957 H   0  0  0  0  0  0  0  0  0  0  0  0
   -4.1226    0.2898    0.7191 H   0  0  0  0  0  0  0  0  0  0  0  0
   -2.5388   -0.2210   -0.0041 H   0  0  0  0  0  0  0  0  0  0  0  0
    2.1657    0.0214    1.8167 H   0  0  0  0  0  0  0  0  0  0  0  0
    0.9150   -0.9903   -0.1185 H   0  0  0  0  0  0  0  0  0  0  0  0
  1 17  1  0  0  0  0
  1 16  1  0  0  0  0
  1 18  1  0  0  0  0
  2  1  1  0  0  0  0
  3  2  1  0  0  0  0
  4  3  1  0  0  0  0
  5 21  1  0  0  0  0
  5  4  1  0  0  0  0
  6  5  2  0  0  0  0
  7  6  1  0  0  0  0
  7  8  2  0  0  0  0
  9  7  1  0  0  0  0
 10  9  1  0  0  0  0
 11 12  2  0  0  0  0
 11  6  1  0  0  0  0
 12 13  1  0  0  0  0
 13 14  1  0  0  0  0
 13  4  2  0  0  0  0
 15 11  1  0  0  0  0
 19  2  1  0  0  0  0
 20  2  1  0  0  0  0
 22  9  1  0  0  0  0
 23  9  1  0  0  0  0
 24 12  1  0  0  0  0
 25 15  1  0  0  0  0
M  END
