313230909.xyz
 OpenBabel08132112093D
FC(c1ccc(c(c1Cl)S)F)F
 16 16  0  0  0  0  0  0  0  0999 V2000
    1.9016   -0.2787    6.1728 F   0  0  0  0  0  0  0  0  0  0  0  0
    2.2318    0.0233    4.8894 C   0  0  0  0  0  0  0  0  0  0  0  0
    1.0052   -0.0084    4.0080 C   0  0  0  0  0  0  0  0  0  0  0  0
   -0.2681   -0.0106    4.5814 C   0  0  0  0  0  0  0  0  0  0  0  0
   -1.4070   -0.0069    3.7765 C   0  0  0  0  0  0  0  0  0  0  0  0
   -1.2562   -0.0007    2.3989 C   0  0  0  0  0  0  0  0  0  0  0  0
   -0.0000   -0.0000    1.7684 C   0  0  0  0  0  0  0  0  0  0  0  0
    1.1289   -0.0000    2.6086 C   0  0  0  0  0  0  0  0  0  0  0  0
    2.7325    0.0006    1.9023 Cl  0  0  0  0  0  0  0  0  0  0  0  0
    0.0000    0.0000    0.0000 S   0  0  0  0  0  0  0  0  0  0  0  0
   -2.3421    0.0001    1.6172 F   0  0  0  0  0  0  0  0  0  0  0  0
    2.7806    1.2693    4.8931 F   0  0  0  0  0  0  0  0  0  0  0  0
    3.0072   -0.6856    4.5561 H   0  0  0  0  0  0  0  0  0  0  0  0
   -0.3578   -0.0226    5.6672 H   0  0  0  0  0  0  0  0  0  0  0  0
   -2.4127   -0.0094    4.1988 H   0  0  0  0  0  0  0  0  0  0  0  0
    1.3453    0.0121   -0.1190 H   0  0  0  0  0  0  0  0  0  0  0  0
  2 12  1  0  0  0  0
  2  1  1  0  0  0  0
  3  4  1  0  0  0  0
  3  2  1  0  0  0  0
  4 14  1  0  0  0  0
  5 15  1  0  0  0  0
  5  4  2  0  0  0  0
  6  5  1  0  0  0  0
  7  6  2  0  0  0  0
  7  8  1  0  0  0  0
  8  3  2  0  0  0  0
  9  8  1  0  0  0  0
 10  7  1  0  0  0  0
 11  6  1  0  0  0  0
 13  2  1  0  0  0  0
 16 10  1  0  0  0  0
M  END
