313271747.xyz
 OpenBabel08132112093D
CCOC(=O)Cc1cc(S)c(cc1F)C(F)(F)F
 28 28  0  0  0  0  0  0  0  0999 V2000
   -5.2379   -3.8230    5.1763 C   0  0  0  0  0  0  0  0  0  0  0  0
   -4.6683   -2.8611    6.2034 C   0  0  0  0  0  0  0  0  0  0  0  0
   -4.2553   -1.6214    5.5959 O   0  0  0  0  0  0  0  0  0  0  0  0
   -3.0406   -1.5946    5.0253 C   0  0  0  0  0  0  0  0  0  0  0  0
   -2.2802   -2.5281    4.9943 O   0  0  0  0  0  0  0  0  0  0  0  0
   -2.7719   -0.2185    4.4294 C   0  0  0  0  0  0  0  0  0  0  0  0
   -1.4242   -0.1253    3.7758 C   0  0  0  0  0  0  0  0  0  0  0  0
   -1.2639   -0.0629    2.3912 C   0  0  0  0  0  0  0  0  0  0  0  0
    0.0000   -0.0000    1.7826 C   0  0  0  0  0  0  0  0  0  0  0  0
    0.0000    0.0000    0.0000 S   0  0  0  0  0  0  0  0  0  0  0  0
    1.1448   -0.0000    2.6073 C   0  0  0  0  0  0  0  0  0  0  0  0
    0.9984   -0.0397    3.9987 C   0  0  0  0  0  0  0  0  0  0  0  0
   -0.2676   -0.1052    4.5584 C   0  0  0  0  0  0  0  0  0  0  0  0
   -0.3924   -0.1413    5.8933 F   0  0  0  0  0  0  0  0  0  0  0  0
    2.5436    0.0193    2.0372 C   0  0  0  0  0  0  0  0  0  0  0  0
    3.4787    0.0220    2.9981 F   0  0  0  0  0  0  0  0  0  0  0  0
    2.7619    1.1225    1.2806 F   0  0  0  0  0  0  0  0  0  0  0  0
    2.7819   -1.0410    1.2503 F   0  0  0  0  0  0  0  0  0  0  0  0
   -6.0713   -3.3603    4.6253 H   0  0  0  0  0  0  0  0  0  0  0  0
   -5.6163   -4.7272    5.6789 H   0  0  0  0  0  0  0  0  0  0  0  0
   -4.4620   -4.1292    4.4598 H   0  0  0  0  0  0  0  0  0  0  0  0
   -3.8068   -3.3048    6.7237 H   0  0  0  0  0  0  0  0  0  0  0  0
   -5.4253   -2.5676    6.9443 H   0  0  0  0  0  0  0  0  0  0  0  0
   -3.5774    0.0036    3.7134 H   0  0  0  0  0  0  0  0  0  0  0  0
   -2.8716    0.5137    5.2467 H   0  0  0  0  0  0  0  0  0  0  0  0
   -2.1534   -0.0536    1.7569 H   0  0  0  0  0  0  0  0  0  0  0  0
    1.1551    0.6719   -0.1819 H   0  0  0  0  0  0  0  0  0  0  0  0
    1.8699   -0.0325    4.6517 H   0  0  0  0  0  0  0  0  0  0  0  0
  1 20  1  0  0  0  0
  1  2  1  0  0  0  0
  2 22  1  0  0  0  0
  2 23  1  0  0  0  0
  3  2  1  0  0  0  0
  4  3  1  0  0  0  0
  5  4  2  0  0  0  0
  6  4  1  0  0  0  0
  6 25  1  0  0  0  0
  7  6  1  0  0  0  0
  7 13  2  0  0  0  0
  8  7  1  0  0  0  0
  9  8  2  0  0  0  0
  9 11  1  0  0  0  0
 10  9  1  0  0  0  0
 11 12  2  0  0  0  0
 12 13  1  0  0  0  0
 12 28  1  0  0  0  0
 13 14  1  0  0  0  0
 15 11  1  0  0  0  0
 15 16  1  0  0  0  0
 17 15  1  0  0  0  0
 18 15  1  0  0  0  0
 19  1  1  0  0  0  0
 21  1  1  0  0  0  0
 24  6  1  0  0  0  0
 26  8  1  0  0  0  0
 27 10  1  0  0  0  0
M  END
