313255851.xyz
 OpenBabel08132112093D
CC(=O)c1cc(S)c(cc1C(F)(F)F)Cl
 21 21  0  0  0  0  0  0  0  0999 V2000
    3.9274    0.4386    3.5703 C   0  0  0  0  0  0  0  0  0  0  0  0
    2.7752   -0.1142    4.3890 C   0  0  0  0  0  0  0  0  0  0  0  0
    2.9661   -0.6290    5.4673 O   0  0  0  0  0  0  0  0  0  0  0  0
    1.3843   -0.0239    3.8043 C   0  0  0  0  0  0  0  0  0  0  0  0
    1.2466    0.0000    2.4138 C   0  0  0  0  0  0  0  0  0  0  0  0
   -0.0000    0.0000    1.7661 C   0  0  0  0  0  0  0  0  0  0  0  0
    0.0000    0.0000    0.0000 S   0  0  0  0  0  0  0  0  0  0  0  0
   -1.1452    0.0023    2.5794 C   0  0  0  0  0  0  0  0  0  0  0  0
   -1.0311    0.0099    3.9709 C   0  0  0  0  0  0  0  0  0  0  0  0
    0.2125   -0.0092    4.5999 C   0  0  0  0  0  0  0  0  0  0  0  0
    0.2213    0.0289    6.1206 C   0  0  0  0  0  0  0  0  0  0  0  0
    1.0673    0.9545    6.5931 F   0  0  0  0  0  0  0  0  0  0  0  0
    0.5282   -1.1515    6.6650 F   0  0  0  0  0  0  0  0  0  0  0  0
   -1.0045    0.3578    6.5883 F   0  0  0  0  0  0  0  0  0  0  0  0
   -2.7483    0.0123    1.8883 Cl  0  0  0  0  0  0  0  0  0  0  0  0
    3.7016    1.4378    3.1680 H   0  0  0  0  0  0  0  0  0  0  0  0
    4.8154    0.4795    4.2132 H   0  0  0  0  0  0  0  0  0  0  0  0
    4.1492   -0.2225    2.7164 H   0  0  0  0  0  0  0  0  0  0  0  0
    2.1406   -0.0012    1.7898 H   0  0  0  0  0  0  0  0  0  0  0  0
   -1.3430    0.0186   -0.1450 H   0  0  0  0  0  0  0  0  0  0  0  0
   -1.9406    0.0404    4.5679 H   0  0  0  0  0  0  0  0  0  0  0  0
  1 17  1  0  0  0  0
  1  2  1  0  0  0  0
  2  3  2  0  0  0  0
  4  2  1  0  0  0  0
  4 10  2  0  0  0  0
  5  4  1  0  0  0  0
  6  5  2  0  0  0  0
  6  8  1  0  0  0  0
  7  6  1  0  0  0  0
  8  9  2  0  0  0  0
  9 21  1  0  0  0  0
  9 10  1  0  0  0  0
 10 11  1  0  0  0  0
 11 14  1  0  0  0  0
 11 12  1  0  0  0  0
 11 13  1  0  0  0  0
 15  8  1  0  0  0  0
 16  1  1  0  0  0  0
 18  1  1  0  0  0  0
 19  5  1  0  0  0  0
 20  7  1  0  0  0  0
M  END
