313200960.xyz
 OpenBabel08132112093D
NC(=O)c1c(ccc(c1Cl)S)C(F)F
 20 20  0  0  0  0  0  0  0  0999 V2000
   -3.1481   -0.9529    4.7878 N   0  0  0  0  0  0  0  0  0  0  0  0
   -2.2763    0.0787    4.8901 C   0  0  0  0  0  0  0  0  0  0  0  0
   -2.4111    0.9968    5.6794 O   0  0  0  0  0  0  0  0  0  0  0  0
   -1.0552    0.0088    3.9877 C   0  0  0  0  0  0  0  0  0  0  0  0
    0.2172    0.0247    4.5878 C   0  0  0  0  0  0  0  0  0  0  0  0
    1.3597    0.0132    3.7867 C   0  0  0  0  0  0  0  0  0  0  0  0
    1.2533    0.0000    2.4007 C   0  0  0  0  0  0  0  0  0  0  0  0
    0.0000    0.0000    1.7693 C   0  0  0  0  0  0  0  0  0  0  0  0
   -1.1494    0.0007    2.5880 C   0  0  0  0  0  0  0  0  0  0  0  0
   -2.7401    0.0285    1.8363 Cl  0  0  0  0  0  0  0  0  0  0  0  0
    0.0000    0.0000    0.0000 S   0  0  0  0  0  0  0  0  0  0  0  0
    0.3460    0.0463    6.0954 C   0  0  0  0  0  0  0  0  0  0  0  0
   -0.2220   -1.0805    6.6209 F   0  0  0  0  0  0  0  0  0  0  0  0
    1.6562    0.0510    6.4611 F   0  0  0  0  0  0  0  0  0  0  0  0
   -3.9906   -0.9228    5.3507 H   0  0  0  0  0  0  0  0  0  0  0  0
   -3.0541   -1.6651    4.0768 H   0  0  0  0  0  0  0  0  0  0  0  0
    2.3415    0.0196    4.2593 H   0  0  0  0  0  0  0  0  0  0  0  0
    2.1562   -0.0032    1.7861 H   0  0  0  0  0  0  0  0  0  0  0  0
   -1.3401    0.0458   -0.1555 H   0  0  0  0  0  0  0  0  0  0  0  0
   -0.1521    0.9159    6.5475 H   0  0  0  0  0  0  0  0  0  0  0  0
  1  2  1  0  0  0  0
  1 15  1  0  0  0  0
  2  3  2  0  0  0  0
  4  5  1  0  0  0  0
  4  2  1  0  0  0  0
  5 12  1  0  0  0  0
  6 17  1  0  0  0  0
  6  5  2  0  0  0  0
  7  6  1  0  0  0  0
  8  7  2  0  0  0  0
  8  9  1  0  0  0  0
  9  4  2  0  0  0  0
 10  9  1  0  0  0  0
 11  8  1  0  0  0  0
 12 14  1  0  0  0  0
 12 20  1  0  0  0  0
 12 13  1  0  0  0  0
 16  1  1  0  0  0  0
 18  7  1  0  0  0  0
 19 11  1  0  0  0  0
M  END
