313217284.xyz
 OpenBabel08132112093D
N#Cc1cc(S)cc(c1CO)Cl
 18 18  0  0  0  0  0  0  0  0999 V2000
   -3.5713    0.0006    5.0553 N   0  0  0  0  0  0  0  0  0  0  0  0
   -2.5615   -0.0026    4.4819 C   0  0  0  0  0  0  0  0  0  0  0  0
   -1.2830   -0.0010    3.8277 C   0  0  0  0  0  0  0  0  0  0  0  0
   -1.2384   -0.0010    2.4289 C   0  0  0  0  0  0  0  0  0  0  0  0
   -0.0000   -0.0000    1.7733 C   0  0  0  0  0  0  0  0  0  0  0  0
    0.0000    0.0000    0.0000 S   0  0  0  0  0  0  0  0  0  0  0  0
    1.1709    0.0000    2.5405 C   0  0  0  0  0  0  0  0  0  0  0  0
    1.1013    0.0025    3.9374 C   0  0  0  0  0  0  0  0  0  0  0  0
   -0.1169    0.0049    4.6294 C   0  0  0  0  0  0  0  0  0  0  0  0
   -0.2305    0.0220    6.1461 C   0  0  0  0  0  0  0  0  0  0  0  0
   -0.9174    1.1467    6.6419 O   0  0  0  0  0  0  0  0  0  0  0  0
    2.6222   -0.0043    4.8038 Cl  0  0  0  0  0  0  0  0  0  0  0  0
   -2.1702   -0.0026    1.8612 H   0  0  0  0  0  0  0  0  0  0  0  0
    1.3422    0.0070   -0.1552 H   0  0  0  0  0  0  0  0  0  0  0  0
    2.1528    0.0005    2.0659 H   0  0  0  0  0  0  0  0  0  0  0  0
    0.7785    0.0409    6.5752 H   0  0  0  0  0  0  0  0  0  0  0  0
   -0.7048   -0.9243    6.4716 H   0  0  0  0  0  0  0  0  0  0  0  0
   -1.8687    0.9862    6.5793 H   0  0  0  0  0  0  0  0  0  0  0  0
  2  1  3  0  0  0  0
  3  2  1  0  0  0  0
  3  9  2  0  0  0  0
  4  3  1  0  0  0  0
  5  4  2  0  0  0  0
  5  7  1  0  0  0  0
  6  5  1  0  0  0  0
  7  8  2  0  0  0  0
  8  9  1  0  0  0  0
  8 12  1  0  0  0  0
  9 10  1  0  0  0  0
 10 17  1  0  0  0  0
 10 16  1  0  0  0  0
 10 11  1  0  0  0  0
 13  4  1  0  0  0  0
 14  6  1  0  0  0  0
 15  7  1  0  0  0  0
 18 11  1  0  0  0  0
M  END
