313269455.xyz
 OpenBabel08132112093D
CCOC(=O)c1ccc(c(c1OC(F)(F)F)F)S
 26 26  0  0  0  0  0  0  0  0999 V2000
   -0.3347   -1.7266    8.7038 C   0  0  0  0  0  0  0  0  0  0  0  0
   -0.8632   -0.4026    8.1825 C   0  0  0  0  0  0  0  0  0  0  0  0
   -0.9113   -0.3818    6.7442 O   0  0  0  0  0  0  0  0  0  0  0  0
    0.2112   -0.0565    6.0960 C   0  0  0  0  0  0  0  0  0  0  0  0
    1.2677    0.1663    6.6433 O   0  0  0  0  0  0  0  0  0  0  0  0
    0.0532   -0.0218    4.6073 C   0  0  0  0  0  0  0  0  0  0  0  0
    1.2369   -0.0082    3.8516 C   0  0  0  0  0  0  0  0  0  0  0  0
    1.2189    0.0000    2.4634 C   0  0  0  0  0  0  0  0  0  0  0  0
    0.0000    0.0000    1.7654 C   0  0  0  0  0  0  0  0  0  0  0  0
   -1.1829    0.0007    2.5153 C   0  0  0  0  0  0  0  0  0  0  0  0
   -1.1690   -0.0037    3.9124 C   0  0  0  0  0  0  0  0  0  0  0  0
   -2.3958   -0.0272    4.5476 O   0  0  0  0  0  0  0  0  0  0  0  0
   -2.9598    1.1559    4.8964 C   0  0  0  0  0  0  0  0  0  0  0  0
   -2.1397    1.9199    5.6304 F   0  0  0  0  0  0  0  0  0  0  0  0
   -4.0478    0.8901    5.6011 F   0  0  0  0  0  0  0  0  0  0  0  0
   -3.3048    1.8809    3.8230 F   0  0  0  0  0  0  0  0  0  0  0  0
   -2.3634    0.0061    1.8856 F   0  0  0  0  0  0  0  0  0  0  0  0
    0.0000    0.0000    0.0000 S   0  0  0  0  0  0  0  0  0  0  0  0
   -0.9315   -2.5659    8.3149 H   0  0  0  0  0  0  0  0  0  0  0  0
    0.7151   -1.8680    8.4095 H   0  0  0  0  0  0  0  0  0  0  0  0
   -0.3896   -1.7438    9.8038 H   0  0  0  0  0  0  0  0  0  0  0  0
   -0.2416    0.4359    8.5289 H   0  0  0  0  0  0  0  0  0  0  0  0
   -1.9042   -0.2332    8.4915 H   0  0  0  0  0  0  0  0  0  0  0  0
    2.1810   -0.0064    4.3974 H   0  0  0  0  0  0  0  0  0  0  0  0
    2.1560    0.0049    1.9032 H   0  0  0  0  0  0  0  0  0  0  0  0
   -1.3426    0.0278   -0.1444 H   0  0  0  0  0  0  0  0  0  0  0  0
  1 21  1  0  0  0  0
  2 23  1  0  0  0  0
  2 22  1  0  0  0  0
  2  1  1  0  0  0  0
  3  2  1  0  0  0  0
  4  5  2  0  0  0  0
  4  3  1  0  0  0  0
  6  4  1  0  0  0  0
  7 24  1  0  0  0  0
  7  6  2  0  0  0  0
  8  7  1  0  0  0  0
  9  8  2  0  0  0  0
  9 10  1  0  0  0  0
 10 11  2  0  0  0  0
 11 12  1  0  0  0  0
 11  6  1  0  0  0  0
 12 13  1  0  0  0  0
 13 15  1  0  0  0  0
 13 14  1  0  0  0  0
 16 13  1  0  0  0  0
 17 10  1  0  0  0  0
 18  9  1  0  0  0  0
 19  1  1  0  0  0  0
 20  1  1  0  0  0  0
 25  8  1  0  0  0  0
 26 18  1  0  0  0  0
M  END
