313278272.xyz
 OpenBabel08132112103D
CCOc1c(CO)cc(cc1[N+](=O)[O-])S
 26 26  0  0  0  0  0  0  0  0999 V2000
    0.5160    0.8876    8.1183 C   0  0  0  0  0  0  0  0  0  0  0  0
    0.0944    1.1791    6.6965 C   0  0  0  0  0  0  0  0  0  0  0  0
    0.1381   -0.0578    5.9632 O   0  0  0  0  0  0  0  0  0  0  0  0
    0.1027    0.0177    4.6105 C   0  0  0  0  0  0  0  0  0  0  0  0
   -1.1351   -0.0148    3.9379 C   0  0  0  0  0  0  0  0  0  0  0  0
   -2.4245   -0.0750    4.7360 C   0  0  0  0  0  0  0  0  0  0  0  0
   -3.5202   -0.5635    3.9977 O   0  0  0  0  0  0  0  0  0  0  0  0
   -1.1756   -0.0139    2.5432 C   0  0  0  0  0  0  0  0  0  0  0  0
   -0.0000    0.0000    1.7767 C   0  0  0  0  0  0  0  0  0  0  0  0
    1.2339   -0.0000    2.4332 C   0  0  0  0  0  0  0  0  0  0  0  0
    1.2721    0.0258    3.8270 C   0  0  0  0  0  0  0  0  0  0  0  0
    2.6048    0.0281    4.4536 N   0  0  0  0  0  0  0  0  0  0  0  0
    3.5005   -0.5451    3.8551 O   0  0  0  0  0  0  0  0  0  0  0  0
    2.7411    0.6153    5.5150 O   0  0  0  0  0  0  0  0  0  0  0  0
    0.0000    0.0000    0.0000 S   0  0  0  0  0  0  0  0  0  0  0  0
    1.5459    0.5029    8.1303 H   0  0  0  0  0  0  0  0  0  0  0  0
   -0.1460    0.1360    8.5758 H   0  0  0  0  0  0  0  0  0  0  0  0
    0.4724    1.8058    8.7241 H   0  0  0  0  0  0  0  0  0  0  0  0
   -0.9322    1.5876    6.6551 H   0  0  0  0  0  0  0  0  0  0  0  0
    0.7777    1.9000    6.2238 H   0  0  0  0  0  0  0  0  0  0  0  0
   -2.7047    0.9430    5.0560 H   0  0  0  0  0  0  0  0  0  0  0  0
   -2.2420   -0.6532    5.6601 H   0  0  0  0  0  0  0  0  0  0  0  0
   -3.3584   -1.4973    3.8059 H   0  0  0  0  0  0  0  0  0  0  0  0
   -2.1567   -0.0410    2.0656 H   0  0  0  0  0  0  0  0  0  0  0  0
    2.1771   -0.0215    1.8876 H   0  0  0  0  0  0  0  0  0  0  0  0
   -1.3421    0.0410   -0.1503 H   0  0  0  0  0  0  0  0  0  0  0  0
  1 16  1  0  0  0  0
  1 17  1  0  0  0  0
  1 18  1  0  0  0  0
  2  1  1  0  0  0  0
  3  2  1  0  0  0  0
  4  3  1  0  0  0  0
  5  4  1  0  0  0  0
  5  6  1  0  0  0  0
  6 21  1  0  0  0  0
  6 22  1  0  0  0  0
  7  6  1  0  0  0  0
  8  5  2  0  0  0  0
  9 10  2  0  0  0  0
  9  8  1  0  0  0  0
 10 11  1  0  0  0  0
 11 12  1  0  0  0  0
 11  4  2  0  0  0  0
 12 14  2  0  0  0  0
 13 12  2  0  0  0  0
 15  9  1  0  0  0  0
 19  2  1  0  0  0  0
 20  2  1  0  0  0  0
 23  7  1  0  0  0  0
 24  8  1  0  0  0  0
 25 10  1  0  0  0  0
 26 15  1  0  0  0  0
M  END
