313209641.xyz
 OpenBabel08132112093D
BrCC(=O)c1ccc(c(c1Cl)S)OC(F)F
 22 22  0  0  0  0  0  0  0  0999 V2000
    3.0172   -2.6900    4.2128 Br  0  0  0  0  0  0  0  0  0  0  0  0
    3.4074   -0.8532    4.7820 C   0  0  0  0  0  0  0  0  0  0  0  0
    2.1325   -0.0562    5.0218 C   0  0  0  0  0  0  0  0  0  0  0  0
    1.9910    0.4896    6.0953 O   0  0  0  0  0  0  0  0  0  0  0  0
    1.0143   -0.0172    4.0113 C   0  0  0  0  0  0  0  0  0  0  0  0
   -0.2714    0.0244    4.5679 C   0  0  0  0  0  0  0  0  0  0  0  0
   -1.4117    0.0353    3.7723 C   0  0  0  0  0  0  0  0  0  0  0  0
   -1.2708    0.0049    2.3866 C   0  0  0  0  0  0  0  0  0  0  0  0
   -0.0000   -0.0000    1.7710 C   0  0  0  0  0  0  0  0  0  0  0  0
    1.1335    0.0000    2.6063 C   0  0  0  0  0  0  0  0  0  0  0  0
    2.7135    0.0836    1.8520 Cl  0  0  0  0  0  0  0  0  0  0  0  0
    0.0000    0.0000    0.0000 S   0  0  0  0  0  0  0  0  0  0  0  0
   -2.3356    0.0156    1.5226 O   0  0  0  0  0  0  0  0  0  0  0  0
   -3.5171   -0.5749    1.8991 C   0  0  0  0  0  0  0  0  0  0  0  0
   -4.2318    0.2572    2.6945 F   0  0  0  0  0  0  0  0  0  0  0  0
   -4.2208   -0.7829    0.7864 F   0  0  0  0  0  0  0  0  0  0  0  0
    4.0364   -0.4102    4.0033 H   0  0  0  0  0  0  0  0  0  0  0  0
    3.9464   -0.9094    5.7333 H   0  0  0  0  0  0  0  0  0  0  0  0
   -0.3551    0.0536    5.6545 H   0  0  0  0  0  0  0  0  0  0  0  0
   -2.4019    0.0933    4.2227 H   0  0  0  0  0  0  0  0  0  0  0  0
    1.3420   -0.0828   -0.1215 H   0  0  0  0  0  0  0  0  0  0  0  0
   -3.3549   -1.5247    2.4403 H   0  0  0  0  0  0  0  0  0  0  0  0
  1  2  1  0  0  0  0
  2  3  1  0  0  0  0
  2 18  1  0  0  0  0
  3  4  2  0  0  0  0
  5  6  1  0  0  0  0
  5  3  1  0  0  0  0
  6 19  1  0  0  0  0
  7 20  1  0  0  0  0
  7  6  2  0  0  0  0
  8  7  1  0  0  0  0
  9  8  2  0  0  0  0
  9 10  1  0  0  0  0
 10  5  2  0  0  0  0
 11 10  1  0  0  0  0
 12  9  1  0  0  0  0
 13 14  1  0  0  0  0
 13  8  1  0  0  0  0
 14 22  1  0  0  0  0
 14 15  1  0  0  0  0
 16 14  1  0  0  0  0
 17  2  1  0  0  0  0
 21 12  1  0  0  0  0
M  END
