313245954.xyz
 OpenBabel08132112093D
Clc1cc(Br)c(cc1C(F)(F)F)S
 16 16  0  0  0  0  0  0  0  0999 V2000
    0.3359    0.0004    6.3247 Cl  0  0  0  0  0  0  0  0  0  0  0  0
    0.2476    0.0002    4.5862 C   0  0  0  0  0  0  0  0  0  0  0  0
   -1.0120    0.0002    3.9903 C   0  0  0  0  0  0  0  0  0  0  0  0
   -1.1363    0.0001    2.5991 C   0  0  0  0  0  0  0  0  0  0  0  0
   -2.9014   -0.0001    1.8824 Br  0  0  0  0  0  0  0  0  0  0  0  0
    0.0000    0.0000    1.7684 C   0  0  0  0  0  0  0  0  0  0  0  0
    1.2574   -0.0000    2.3971 C   0  0  0  0  0  0  0  0  0  0  0  0
    1.4015    0.0001    3.7826 C   0  0  0  0  0  0  0  0  0  0  0  0
    2.7914    0.0001    4.3846 C   0  0  0  0  0  0  0  0  0  0  0  0
    2.9995   -1.0820    5.1493 F   0  0  0  0  0  0  0  0  0  0  0  0
    3.7377   -0.0004    3.4292 F   0  0  0  0  0  0  0  0  0  0  0  0
    2.9997    1.0829    5.1483 F   0  0  0  0  0  0  0  0  0  0  0  0
    0.0000    0.0000    0.0000 S   0  0  0  0  0  0  0  0  0  0  0  0
   -1.9014    0.0003    4.6194 H   0  0  0  0  0  0  0  0  0  0  0  0
    2.1561   -0.0000    1.7797 H   0  0  0  0  0  0  0  0  0  0  0  0
   -1.3429   -0.0007   -0.1506 H   0  0  0  0  0  0  0  0  0  0  0  0
  2  1  1  0  0  0  0
  3  2  1  0  0  0  0
  3 14  1  0  0  0  0
  4  3  2  0  0  0  0
  5  4  1  0  0  0  0
  6  7  2  0  0  0  0
  6  4  1  0  0  0  0
  7  8  1  0  0  0  0
  8  9  1  0  0  0  0
  8  2  2  0  0  0  0
  9 12  1  0  0  0  0
  9 10  1  0  0  0  0
 11  9  1  0  0  0  0
 13  6  1  0  0  0  0
 15  7  1  0  0  0  0
 16 13  1  0  0  0  0
M  END
