313230953.xyz
 OpenBabel08132112093D
CCOc1ccc(c(c1CCl)Cl)S
 23 23  0  0  0  0  0  0  0  0999 V2000
    1.1238    0.0094    8.1366 C   0  0  0  0  0  0  0  0  0  0  0  0
    1.4400   -0.0129    6.6555 C   0  0  0  0  0  0  0  0  0  0  0  0
    0.2099   -0.0918    5.9512 O   0  0  0  0  0  0  0  0  0  0  0  0
    0.2024   -0.0690    4.5986 C   0  0  0  0  0  0  0  0  0  0  0  0
    1.3568   -0.0416    3.8074 C   0  0  0  0  0  0  0  0  0  0  0  0
    1.2448    0.0000    2.4195 C   0  0  0  0  0  0  0  0  0  0  0  0
    0.0000   -0.0000    1.7769 C   0  0  0  0  0  0  0  0  0  0  0  0
   -1.1502   -0.0345    2.5901 C   0  0  0  0  0  0  0  0  0  0  0  0
   -1.0734   -0.0758    3.9907 C   0  0  0  0  0  0  0  0  0  0  0  0
   -2.2874   -0.0697    4.8628 C   0  0  0  0  0  0  0  0  0  0  0  0
   -2.7953    1.6332    5.2761 Cl  0  0  0  0  0  0  0  0  0  0  0  0
   -2.7359   -0.0108    1.8423 Cl  0  0  0  0  0  0  0  0  0  0  0  0
    0.0000    0.0000    0.0000 S   0  0  0  0  0  0  0  0  0  0  0  0
    0.5949   -0.9085    8.4346 H   0  0  0  0  0  0  0  0  0  0  0  0
    0.4838    0.8710    8.3789 H   0  0  0  0  0  0  0  0  0  0  0  0
    2.0521    0.0837    8.7232 H   0  0  0  0  0  0  0  0  0  0  0  0
    2.0771   -0.8797    6.3982 H   0  0  0  0  0  0  0  0  0  0  0  0
    1.9830    0.9015    6.3535 H   0  0  0  0  0  0  0  0  0  0  0  0
    2.3470   -0.0380    4.2601 H   0  0  0  0  0  0  0  0  0  0  0  0
    2.1517    0.0396    1.8120 H   0  0  0  0  0  0  0  0  0  0  0  0
   -3.1467   -0.5330    4.3691 H   0  0  0  0  0  0  0  0  0  0  0  0
   -2.0824   -0.5628    5.8174 H   0  0  0  0  0  0  0  0  0  0  0  0
   -1.2864    0.3798   -0.1547 H   0  0  0  0  0  0  0  0  0  0  0  0
  1 15  1  0  0  0  0
  1 14  1  0  0  0  0
  1 16  1  0  0  0  0
  2  1  1  0  0  0  0
  3  2  1  0  0  0  0
  4  3  1  0  0  0  0
  5 19  1  0  0  0  0
  5  4  2  0  0  0  0
  6  5  1  0  0  0  0
  7  6  2  0  0  0  0
  7  8  1  0  0  0  0
  8  9  2  0  0  0  0
  9  4  1  0  0  0  0
  9 10  1  0  0  0  0
 10 11  1  0  0  0  0
 10 22  1  0  0  0  0
 12  8  1  0  0  0  0
 13  7  1  0  0  0  0
 17  2  1  0  0  0  0
 18  2  1  0  0  0  0
 20  6  1  0  0  0  0
 21 10  1  0  0  0  0
 23 13  1  0  0  0  0
M  END
