313210912.xyz
 OpenBabel08132112093D
FC(Oc1c(S)cc(cc1Cl)C(=O)N)F
 21 21  0  0  0  0  0  0  0  0999 V2000
    4.4253    0.7379    1.6766 F   0  0  0  0  0  0  0  0  0  0  0  0
    3.1593    1.1036    1.8800 C   0  0  0  0  0  0  0  0  0  0  0  0
    2.4026   -0.0484    1.9089 O   0  0  0  0  0  0  0  0  0  0  0  0
    1.1792    0.0000    2.5389 C   0  0  0  0  0  0  0  0  0  0  0  0
    0.0000    0.0000    1.7700 C   0  0  0  0  0  0  0  0  0  0  0  0
    0.0000    0.0000    0.0000 S   0  0  0  0  0  0  0  0  0  0  0  0
   -1.2391   -0.0211    2.4289 C   0  0  0  0  0  0  0  0  0  0  0  0
   -1.3139   -0.0403    3.8240 C   0  0  0  0  0  0  0  0  0  0  0  0
   -0.1402   -0.0231    4.5865 C   0  0  0  0  0  0  0  0  0  0  0  0
    1.0920   -0.0151    3.9422 C   0  0  0  0  0  0  0  0  0  0  0  0
    2.5583   -0.0417    4.8882 Cl  0  0  0  0  0  0  0  0  0  0  0  0
   -2.6187   -0.0451    4.5815 C   0  0  0  0  0  0  0  0  0  0  0  0
   -2.6763    0.2992    5.7482 O   0  0  0  0  0  0  0  0  0  0  0  0
   -3.7190   -0.4456    3.8762 N   0  0  0  0  0  0  0  0  0  0  0  0
    2.7734    1.8697    0.8281 F   0  0  0  0  0  0  0  0  0  0  0  0
    3.0681    1.7002    2.8013 H   0  0  0  0  0  0  0  0  0  0  0  0
    1.3327    0.1439   -0.1506 H   0  0  0  0  0  0  0  0  0  0  0  0
   -2.1482    0.0161    1.8259 H   0  0  0  0  0  0  0  0  0  0  0  0
   -0.2084   -0.0183    5.6738 H   0  0  0  0  0  0  0  0  0  0  0  0
   -3.6358   -0.9670    3.0141 H   0  0  0  0  0  0  0  0  0  0  0  0
   -4.5875   -0.5213    4.3931 H   0  0  0  0  0  0  0  0  0  0  0  0
  1  2  1  0  0  0  0
  2  3  1  0  0  0  0
  2 16  1  0  0  0  0
  3  4  1  0  0  0  0
  4 10  2  0  0  0  0
  5  7  2  0  0  0  0
  5  4  1  0  0  0  0
  6  5  1  0  0  0  0
  7  8  1  0  0  0  0
  8 12  1  0  0  0  0
  8  9  2  0  0  0  0
  9 19  1  0  0  0  0
 10  9  1  0  0  0  0
 10 11  1  0  0  0  0
 12 13  2  0  0  0  0
 14 21  1  0  0  0  0
 14 12  1  0  0  0  0
 15  2  1  0  0  0  0
 17  6  1  0  0  0  0
 18  7  1  0  0  0  0
 20 14  1  0  0  0  0
M  END
