313205333.xyz
 OpenBabel08132112093D
COc1cc(S)cc(c1Cl)OC
 21 21  0  0  0  0  0  0  0  0999 V2000
    3.7007   -0.0013    3.8044 C   0  0  0  0  0  0  0  0  0  0  0  0
    2.4779   -0.0020    4.5058 O   0  0  0  0  0  0  0  0  0  0  0  0
    1.3200   -0.0018    3.8139 C   0  0  0  0  0  0  0  0  0  0  0  0
    1.2487    0.0000    2.4130 C   0  0  0  0  0  0  0  0  0  0  0  0
    0.0000   -0.0000    1.7793 C   0  0  0  0  0  0  0  0  0  0  0  0
    0.0000    0.0000    0.0000 S   0  0  0  0  0  0  0  0  0  0  0  0
   -1.1817   -0.0015    2.5286 C   0  0  0  0  0  0  0  0  0  0  0  0
   -1.1168   -0.0025    3.9314 C   0  0  0  0  0  0  0  0  0  0  0  0
    0.1347   -0.0028    4.5730 C   0  0  0  0  0  0  0  0  0  0  0  0
    0.2182   -0.0042    6.3075 Cl  0  0  0  0  0  0  0  0  0  0  0  0
   -2.2039   -0.0035    4.7311 O   0  0  0  0  0  0  0  0  0  0  0  0
   -3.4881   -0.0038    4.1518 C   0  0  0  0  0  0  0  0  0  0  0  0
    3.8093    0.8979    3.1723 H   0  0  0  0  0  0  0  0  0  0  0  0
    4.4929   -0.0023    4.5642 H   0  0  0  0  0  0  0  0  0  0  0  0
    3.8091   -0.8989    3.1701 H   0  0  0  0  0  0  0  0  0  0  0  0
    2.1576    0.0020    1.8137 H   0  0  0  0  0  0  0  0  0  0  0  0
   -1.3411    0.0172   -0.1613 H   0  0  0  0  0  0  0  0  0  0  0  0
   -2.1464   -0.0024    2.0252 H   0  0  0  0  0  0  0  0  0  0  0  0
   -3.6586    0.8950    3.5326 H   0  0  0  0  0  0  0  0  0  0  0  0
   -3.6579   -0.9021    3.5319 H   0  0  0  0  0  0  0  0  0  0  0  0
   -4.2034   -0.0044    4.9845 H   0  0  0  0  0  0  0  0  0  0  0  0
  1  2  1  0  0  0  0
  1 14  1  0  0  0  0
  3  2  1  0  0  0  0
  3  9  2  0  0  0  0
  4  3  1  0  0  0  0
  5  4  2  0  0  0  0
  5  7  1  0  0  0  0
  6  5  1  0  0  0  0
  7  8  2  0  0  0  0
  8  9  1  0  0  0  0
  8 11  1  0  0  0  0
  9 10  1  0  0  0  0
 12 11  1  0  0  0  0
 12 21  1  0  0  0  0
 13  1  1  0  0  0  0
 15  1  1  0  0  0  0
 16  4  1  0  0  0  0
 17  6  1  0  0  0  0
 18  7  1  0  0  0  0
 19 12  1  0  0  0  0
 20 12  1  0  0  0  0
M  END
