313260972.xyz
 OpenBabel08132112093D
BrCC(=O)c1cc(OC)c(cc1Cl)S
 22 22  0  0  0  0  0  0  0  0999 V2000
    1.4170   -2.4151    6.7222 Br  0  0  0  0  0  0  0  0  0  0  0  0
    1.0431   -0.5092    7.0277 C   0  0  0  0  0  0  0  0  0  0  0  0
   -0.0667   -0.0425    6.1013 C   0  0  0  0  0  0  0  0  0  0  0  0
   -1.1302    0.2740    6.6005 O   0  0  0  0  0  0  0  0  0  0  0  0
    0.0908   -0.0281    4.6072 C   0  0  0  0  0  0  0  0  0  0  0  0
   -1.1322    0.0000    3.9026 C   0  0  0  0  0  0  0  0  0  0  0  0
   -1.2022    0.0046    2.5166 C   0  0  0  0  0  0  0  0  0  0  0  0
   -2.3602    0.0143    1.8105 O   0  0  0  0  0  0  0  0  0  0  0  0
   -3.5896    0.0258    2.5081 C   0  0  0  0  0  0  0  0  0  0  0  0
    0.0000   -0.0000    1.7647 C   0  0  0  0  0  0  0  0  0  0  0  0
    1.2178   -0.0000    2.4464 C   0  0  0  0  0  0  0  0  0  0  0  0
    1.2720   -0.0152    3.8432 C   0  0  0  0  0  0  0  0  0  0  0  0
    2.8835    0.0393    4.5301 Cl  0  0  0  0  0  0  0  0  0  0  0  0
    0.0000    0.0000    0.0000 S   0  0  0  0  0  0  0  0  0  0  0  0
    0.6839   -0.4145    8.0570 H   0  0  0  0  0  0  0  0  0  0  0  0
    1.9875    0.0211    6.8764 H   0  0  0  0  0  0  0  0  0  0  0  0
   -2.0334    0.0176    4.5128 H   0  0  0  0  0  0  0  0  0  0  0  0
   -3.7023   -0.8711    3.1413 H   0  0  0  0  0  0  0  0  0  0  0  0
   -3.6862    0.9249    3.1407 H   0  0  0  0  0  0  0  0  0  0  0  0
   -4.3792    0.0325    1.7461 H   0  0  0  0  0  0  0  0  0  0  0  0
    2.1527    0.0166    1.8849 H   0  0  0  0  0  0  0  0  0  0  0  0
   -1.3451    0.0222   -0.1208 H   0  0  0  0  0  0  0  0  0  0  0  0
  1  2  1  0  0  0  0
  2 15  1  0  0  0  0
  3  4  2  0  0  0  0
  3  2  1  0  0  0  0
  5  3  1  0  0  0  0
  6 17  1  0  0  0  0
  6  5  1  0  0  0  0
  7  6  2  0  0  0  0
  8  9  1  0  0  0  0
  8  7  1  0  0  0  0
  9 19  1  0  0  0  0
  9 18  1  0  0  0  0
 10 11  2  0  0  0  0
 10  7  1  0  0  0  0
 11 12  1  0  0  0  0
 12 13  1  0  0  0  0
 12  5  2  0  0  0  0
 14 10  1  0  0  0  0
 16  2  1  0  0  0  0
 20  9  1  0  0  0  0
 21 11  1  0  0  0  0
 22 14  1  0  0  0  0
M  END
