313276390.xyz
 OpenBabel08132112103D
OCc1ccc(c(c1S)C)F
 20 20  0  0  0  0  0  0  0  0999 V2000
   -2.7948    1.1147    0.8620 O   0  0  0  0  0  0  0  0  0  0  0  0
   -2.5612    0.0207    1.7228 C   0  0  0  0  0  0  0  0  0  0  0  0
   -1.2390    0.0729    2.4661 C   0  0  0  0  0  0  0  0  0  0  0  0
   -1.2320    0.1533    3.8638 C   0  0  0  0  0  0  0  0  0  0  0  0
   -0.0405    0.1389    4.5861 C   0  0  0  0  0  0  0  0  0  0  0  0
    1.1590    0.0534    3.8905 C   0  0  0  0  0  0  0  0  0  0  0  0
    1.2271    0.0000    2.4932 C   0  0  0  0  0  0  0  0  0  0  0  0
   -0.0000   -0.0000    1.7970 C   0  0  0  0  0  0  0  0  0  0  0  0
    0.0000    0.0000    0.0000 S   0  0  0  0  0  0  0  0  0  0  0  0
    2.5602   -0.0584    1.8017 C   0  0  0  0  0  0  0  0  0  0  0  0
    2.3063    0.0405    4.5931 F   0  0  0  0  0  0  0  0  0  0  0  0
   -2.3155    0.9437    0.0400 H   0  0  0  0  0  0  0  0  0  0  0  0
   -2.6178   -0.9391    1.1732 H   0  0  0  0  0  0  0  0  0  0  0  0
   -3.3759    0.0191    2.4630 H   0  0  0  0  0  0  0  0  0  0  0  0
   -2.1837    0.2174    4.3970 H   0  0  0  0  0  0  0  0  0  0  0  0
   -0.0228    0.1927    5.6757 H   0  0  0  0  0  0  0  0  0  0  0  0
    0.7689   -1.0990   -0.1823 H   0  0  0  0  0  0  0  0  0  0  0  0
    2.5845    0.6382    0.9500 H   0  0  0  0  0  0  0  0  0  0  0  0
    2.7604   -1.0668    1.3987 H   0  0  0  0  0  0  0  0  0  0  0  0
    3.3732    0.1868    2.4960 H   0  0  0  0  0  0  0  0  0  0  0  0
  1  2  1  0  0  0  0
  2 14  1  0  0  0  0
  2  3  1  0  0  0  0
  3  4  1  0  0  0  0
  4 15  1  0  0  0  0
  4  5  2  0  0  0  0
  5 16  1  0  0  0  0
  6  5  1  0  0  0  0
  6 11  1  0  0  0  0
  7  6  2  0  0  0  0
  8  3  2  0  0  0  0
  8  7  1  0  0  0  0
  9  8  1  0  0  0  0
 10  7  1  0  0  0  0
 10 20  1  0  0  0  0
 12  1  1  0  0  0  0
 13  2  1  0  0  0  0
 17  9  1  0  0  0  0
 18 10  1  0  0  0  0
 19 10  1  0  0  0  0
M  END
