313272800.xyz
 OpenBabel08132112093D
COc1c(F)ccc(c1S)C(=O)N
 21 21  0  0  0  0  0  0  0  0999 V2000
   -3.1725    1.2324    1.7047 C   0  0  0  0  0  0  0  0  0  0  0  0
   -2.4074    0.0278    1.7105 O   0  0  0  0  0  0  0  0  0  0  0  0
   -1.2518    0.0568    2.4380 C   0  0  0  0  0  0  0  0  0  0  0  0
   -1.2929    0.1111    3.8349 C   0  0  0  0  0  0  0  0  0  0  0  0
   -2.4920    0.1513    4.4333 F   0  0  0  0  0  0  0  0  0  0  0  0
   -0.1359    0.1418    4.6035 C   0  0  0  0  0  0  0  0  0  0  0  0
    1.0910    0.0957    3.9514 C   0  0  0  0  0  0  0  0  0  0  0  0
    1.1861    0.0000    2.5545 C   0  0  0  0  0  0  0  0  0  0  0  0
    0.0000   -0.0000    1.7848 C   0  0  0  0  0  0  0  0  0  0  0  0
    0.0000    0.0000    0.0000 S   0  0  0  0  0  0  0  0  0  0  0  0
    2.6045   -0.0595    2.0279 C   0  0  0  0  0  0  0  0  0  0  0  0
    3.5262    0.4130    2.6729 O   0  0  0  0  0  0  0  0  0  0  0  0
    2.8047   -0.6923    0.8399 N   0  0  0  0  0  0  0  0  0  0  0  0
   -4.0310    1.0563    1.0429 H   0  0  0  0  0  0  0  0  0  0  0  0
   -3.5371    1.4765    2.7142 H   0  0  0  0  0  0  0  0  0  0  0  0
   -2.5747    2.0738    1.3143 H   0  0  0  0  0  0  0  0  0  0  0  0
   -0.2159    0.1968    5.6901 H   0  0  0  0  0  0  0  0  0  0  0  0
    2.0254    0.1327    4.5123 H   0  0  0  0  0  0  0  0  0  0  0  0
   -1.3253   -0.2599   -0.0830 H   0  0  0  0  0  0  0  0  0  0  0  0
    3.7584   -0.7526    0.5039 H   0  0  0  0  0  0  0  0  0  0  0  0
    2.0683   -1.1766    0.3415 H   0  0  0  0  0  0  0  0  0  0  0  0
  1  2  1  0  0  0  0
  1 15  1  0  0  0  0
  2  3  1  0  0  0  0
  3  4  1  0  0  0  0
  4  5  1  0  0  0  0
  4  6  2  0  0  0  0
  6 17  1  0  0  0  0
  7 18  1  0  0  0  0
  7  6  1  0  0  0  0
  8  7  2  0  0  0  0
  9  3  2  0  0  0  0
  9  8  1  0  0  0  0
 10  9  1  0  0  0  0
 11  8  1  0  0  0  0
 11 12  2  0  0  0  0
 13 11  1  0  0  0  0
 14  1  1  0  0  0  0
 16  1  1  0  0  0  0
 19 10  1  0  0  0  0
 20 13  1  0  0  0  0
 21 13  1  0  0  0  0
M  END
