313234200.xyz
 OpenBabel08132112093D
FC(Oc1c(S)cc(cc1Cl)F)F
 17 17  0  0  0  0  0  0  0  0999 V2000
    2.7355    1.8825    0.8121 F   0  0  0  0  0  0  0  0  0  0  0  0
    3.1421    1.1265    1.8626 C   0  0  0  0  0  0  0  0  0  0  0  0
    2.4097   -0.0400    1.9040 O   0  0  0  0  0  0  0  0  0  0  0  0
    1.1830    0.0000    2.5338 C   0  0  0  0  0  0  0  0  0  0  0  0
    0.0000   -0.0000    1.7672 C   0  0  0  0  0  0  0  0  0  0  0  0
    0.0000    0.0000    0.0000 S   0  0  0  0  0  0  0  0  0  0  0  0
   -1.2418   -0.0251    2.4213 C   0  0  0  0  0  0  0  0  0  0  0  0
   -1.2846   -0.0466    3.8092 C   0  0  0  0  0  0  0  0  0  0  0  0
   -0.1323   -0.0537    4.5910 C   0  0  0  0  0  0  0  0  0  0  0  0
    1.0982   -0.0355    3.9351 C   0  0  0  0  0  0  0  0  0  0  0  0
    2.5633   -0.0721    4.8792 Cl  0  0  0  0  0  0  0  0  0  0  0  0
   -2.4741   -0.0657    4.4187 F   0  0  0  0  0  0  0  0  0  0  0  0
    4.4143    0.7849    1.6522 F   0  0  0  0  0  0  0  0  0  0  0  0
    3.0463    1.7247    2.7829 H   0  0  0  0  0  0  0  0  0  0  0  0
    1.3392    0.0733   -0.1451 H   0  0  0  0  0  0  0  0  0  0  0  0
   -2.1754   -0.0264    1.8572 H   0  0  0  0  0  0  0  0  0  0  0  0
   -0.1945   -0.0793    5.6778 H   0  0  0  0  0  0  0  0  0  0  0  0
  1  2  1  0  0  0  0
  2  3  1  0  0  0  0
  2 14  1  0  0  0  0
  3  4  1  0  0  0  0
  4 10  2  0  0  0  0
  5  7  2  0  0  0  0
  5  4  1  0  0  0  0
  6  5  1  0  0  0  0
  7  8  1  0  0  0  0
  8 12  1  0  0  0  0
  8  9  2  0  0  0  0
  9 17  1  0  0  0  0
 10  9  1  0  0  0  0
 10 11  1  0  0  0  0
 13  2  1  0  0  0  0
 15  6  1  0  0  0  0
 16  7  1  0  0  0  0
M  END
