313297250.xyz
 OpenBabel08132112103D
CCOC(=O)c1c(S)cc(cc1Br)OC(F)F
 26 26  0  0  0  0  0  0  0  0999 V2000
   -4.6407   -2.1895    0.8344 C   0  0  0  0  0  0  0  0  0  0  0  0
   -4.6113   -1.2567    2.0311 C   0  0  0  0  0  0  0  0  0  0  0  0
   -3.2676   -1.0804    2.5218 O   0  0  0  0  0  0  0  0  0  0  0  0
   -2.5152   -0.1449    1.9459 C   0  0  0  0  0  0  0  0  0  0  0  0
   -2.8764    0.5061    0.9860 O   0  0  0  0  0  0  0  0  0  0  0  0
   -1.1652   -0.0373    2.5829 C   0  0  0  0  0  0  0  0  0  0  0  0
    0.0000    0.0000    1.7756 C   0  0  0  0  0  0  0  0  0  0  0  0
    0.0000    0.0000    0.0000 S   0  0  0  0  0  0  0  0  0  0  0  0
    1.2745   -0.0000    2.3668 C   0  0  0  0  0  0  0  0  0  0  0  0
    1.3974   -0.0220    3.7544 C   0  0  0  0  0  0  0  0  0  0  0  0
    0.2654    0.0126    4.5743 C   0  0  0  0  0  0  0  0  0  0  0  0
   -0.9928    0.0090    3.9840 C   0  0  0  0  0  0  0  0  0  0  0  0
   -2.4739    0.1574    5.1791 Br  0  0  0  0  0  0  0  0  0  0  0  0
    2.6044   -0.0265    4.4044 O   0  0  0  0  0  0  0  0  0  0  0  0
    3.7127   -0.5160    3.7618 C   0  0  0  0  0  0  0  0  0  0  0  0
    4.2169    0.4070    2.9071 F   0  0  0  0  0  0  0  0  0  0  0  0
    4.6327   -0.7527    4.6989 F   0  0  0  0  0  0  0  0  0  0  0  0
   -4.1818   -3.1587    1.0823 H   0  0  0  0  0  0  0  0  0  0  0  0
   -4.1005   -1.7472   -0.0150 H   0  0  0  0  0  0  0  0  0  0  0  0
   -5.6826   -2.3685    0.5252 H   0  0  0  0  0  0  0  0  0  0  0  0
   -5.1607   -1.6743    2.8861 H   0  0  0  0  0  0  0  0  0  0  0  0
   -5.0285   -0.2714    1.7782 H   0  0  0  0  0  0  0  0  0  0  0  0
   -1.2558    0.4882   -0.1371 H   0  0  0  0  0  0  0  0  0  0  0  0
    2.1548    0.0744    1.7298 H   0  0  0  0  0  0  0  0  0  0  0  0
    0.3867    0.0486    5.6558 H   0  0  0  0  0  0  0  0  0  0  0  0
    3.4958   -1.4379    3.1921 H   0  0  0  0  0  0  0  0  0  0  0  0
  1 18  1  0  0  0  0
  1  2  1  0  0  0  0
  2  3  1  0  0  0  0
  2 21  1  0  0  0  0
  4  3  1  0  0  0  0
  4  6  1  0  0  0  0
  5  4  2  0  0  0  0
  6 12  2  0  0  0  0
  7  9  2  0  0  0  0
  7  6  1  0  0  0  0
  8  7  1  0  0  0  0
  9 10  1  0  0  0  0
 10 14  1  0  0  0  0
 10 11  2  0  0  0  0
 11 25  1  0  0  0  0
 12 11  1  0  0  0  0
 12 13  1  0  0  0  0
 15 14  1  0  0  0  0
 15 17  1  0  0  0  0
 16 15  1  0  0  0  0
 19  1  1  0  0  0  0
 20  1  1  0  0  0  0
 22  2  1  0  0  0  0
 23  8  1  0  0  0  0
 24  9  1  0  0  0  0
 26 15  1  0  0  0  0
M  END
