313211942.xyz
 OpenBabel08132112093D
OCc1cc(Cl)cc(c1OC(F)F)S
 21 21  0  0  0  0  0  0  0  0999 V2000
   -2.2875    0.4187    6.0581 O   0  0  0  0  0  0  0  0  0  0  0  0
   -2.4617   -0.0110    4.7298 C   0  0  0  0  0  0  0  0  0  0  0  0
   -1.1716   -0.0179    3.9278 C   0  0  0  0  0  0  0  0  0  0  0  0
    0.0620   -0.0207    4.5867 C   0  0  0  0  0  0  0  0  0  0  0  0
    1.2442   -0.0208    3.8453 C   0  0  0  0  0  0  0  0  0  0  0  0
    2.7790   -0.0246    4.6784 Cl  0  0  0  0  0  0  0  0  0  0  0  0
    1.2293    0.0000    2.4508 C   0  0  0  0  0  0  0  0  0  0  0  0
    0.0000    0.0000    1.7783 C   0  0  0  0  0  0  0  0  0  0  0  0
   -1.1899   -0.0278    2.5270 C   0  0  0  0  0  0  0  0  0  0  0  0
   -2.4095    0.0002    1.8609 O   0  0  0  0  0  0  0  0  0  0  0  0
   -2.9089   -1.2158    1.4570 C   0  0  0  0  0  0  0  0  0  0  0  0
   -3.5707   -1.8131    2.4787 F   0  0  0  0  0  0  0  0  0  0  0  0
   -3.7929   -0.9725    0.4828 F   0  0  0  0  0  0  0  0  0  0  0  0
    0.0000    0.0000    0.0000 S   0  0  0  0  0  0  0  0  0  0  0  0
   -2.0365    1.3523    6.0425 H   0  0  0  0  0  0  0  0  0  0  0  0
   -2.8580   -1.0374    4.7818 H   0  0  0  0  0  0  0  0  0  0  0  0
   -3.2214    0.5802    4.1868 H   0  0  0  0  0  0  0  0  0  0  0  0
    0.0830   -0.0185    5.6758 H   0  0  0  0  0  0  0  0  0  0  0  0
    2.1653    0.0321    1.8925 H   0  0  0  0  0  0  0  0  0  0  0  0
   -2.1216   -1.9018    1.1011 H   0  0  0  0  0  0  0  0  0  0  0  0
   -1.2459    0.5070   -0.1385 H   0  0  0  0  0  0  0  0  0  0  0  0
  2 16  1  0  0  0  0
  2  1  1  0  0  0  0
  3  4  1  0  0  0  0
  3  2  1  0  0  0  0
  4 18  1  0  0  0  0
  5  4  2  0  0  0  0
  5  6  1  0  0  0  0
  7  5  1  0  0  0  0
  8  7  2  0  0  0  0
  8  9  1  0  0  0  0
  9  3  2  0  0  0  0
 10  9  1  0  0  0  0
 11 10  1  0  0  0  0
 11 12  1  0  0  0  0
 13 11  1  0  0  0  0
 14  8  1  0  0  0  0
 15  1  1  0  0  0  0
 17  2  1  0  0  0  0
 19  7  1  0  0  0  0
 20 11  1  0  0  0  0
 21 14  1  0  0  0  0
M  END
