313259015.xyz
 OpenBabel08132112093D
N#Cc1c(F)ccc(c1S)Br
 14 14  0  0  0  0  0  0  0  0999 V2000
    3.4522    0.0001    1.0099 N   0  0  0  0  0  0  0  0  0  0  0  0
    2.4780    0.0001    1.6408 C   0  0  0  0  0  0  0  0  0  0  0  0
    1.2694   -0.0000    2.4049 C   0  0  0  0  0  0  0  0  0  0  0  0
    1.3458   -0.0001    3.8055 C   0  0  0  0  0  0  0  0  0  0  0  0
    2.5478   -0.0001    4.3756 F   0  0  0  0  0  0  0  0  0  0  0  0
    0.2083   -0.0000    4.6012 C   0  0  0  0  0  0  0  0  0  0  0  0
   -1.0376   -0.0000    3.9770 C   0  0  0  0  0  0  0  0  0  0  0  0
   -1.1457   -0.0001    2.5836 C   0  0  0  0  0  0  0  0  0  0  0  0
    0.0000    0.0000    1.7623 C   0  0  0  0  0  0  0  0  0  0  0  0
    0.0000    0.0000    0.0000 S   0  0  0  0  0  0  0  0  0  0  0  0
   -2.9042   -0.0003    1.8454 Br  0  0  0  0  0  0  0  0  0  0  0  0
    0.3076   -0.0000    5.6868 H   0  0  0  0  0  0  0  0  0  0  0  0
   -1.9464   -0.0001    4.5802 H   0  0  0  0  0  0  0  0  0  0  0  0
   -1.3466    0.0008   -0.1243 H   0  0  0  0  0  0  0  0  0  0  0  0
  1  2  3  0  0  0  0
  2  3  1  0  0  0  0
  3  4  1  0  0  0  0
  4  5  1  0  0  0  0
  4  6  2  0  0  0  0
  6 12  1  0  0  0  0
  7 13  1  0  0  0  0
  7  6  1  0  0  0  0
  8  7  2  0  0  0  0
  9  3  2  0  0  0  0
  9  8  1  0  0  0  0
 10  9  1  0  0  0  0
 11  8  1  0  0  0  0
 14 10  1  0  0  0  0
M  END
