313266661.xyz
 OpenBabel08132112093D
OCc1cc(OC(F)(F)F)c(c(c1)F)S
 21 21  0  0  0  0  0  0  0  0999 V2000
   -1.1383   -0.1134    6.6458 O   0  0  0  0  0  0  0  0  0  0  0  0
    0.1606   -0.0227    6.1134 C   0  0  0  0  0  0  0  0  0  0  0  0
    0.0981   -0.0201    4.6046 C   0  0  0  0  0  0  0  0  0  0  0  0
    1.2812   -0.0197    3.8548 C   0  0  0  0  0  0  0  0  0  0  0  0
    1.2188    0.0000    2.4659 C   0  0  0  0  0  0  0  0  0  0  0  0
    2.3795   -0.0428    1.6943 O   0  0  0  0  0  0  0  0  0  0  0  0
    3.1833    1.0464    1.6687 C   0  0  0  0  0  0  0  0  0  0  0  0
    3.8009    1.2487    2.8470 F   0  0  0  0  0  0  0  0  0  0  0  0
    4.1099    0.8447    0.7441 F   0  0  0  0  0  0  0  0  0  0  0  0
    2.5116    2.1653    1.3807 F   0  0  0  0  0  0  0  0  0  0  0  0
   -0.0000   -0.0000    1.7692 C   0  0  0  0  0  0  0  0  0  0  0  0
   -1.1614   -0.0137    2.5517 C   0  0  0  0  0  0  0  0  0  0  0  0
   -1.1309   -0.0174    3.9407 C   0  0  0  0  0  0  0  0  0  0  0  0
   -2.3532   -0.0168    1.9296 F   0  0  0  0  0  0  0  0  0  0  0  0
    0.0000    0.0000    0.0000 S   0  0  0  0  0  0  0  0  0  0  0  0
   -1.0812   -0.0761    7.6074 H   0  0  0  0  0  0  0  0  0  0  0  0
    0.7992   -0.8702    6.4381 H   0  0  0  0  0  0  0  0  0  0  0  0
    0.6752    0.9034    6.4444 H   0  0  0  0  0  0  0  0  0  0  0  0
    2.2578   -0.0363    4.3399 H   0  0  0  0  0  0  0  0  0  0  0  0
   -2.0630   -0.0259    4.5039 H   0  0  0  0  0  0  0  0  0  0  0  0
   -1.3445    0.0723   -0.1090 H   0  0  0  0  0  0  0  0  0  0  0  0
  1 16  1  0  0  0  0
  2 17  1  0  0  0  0
  2 18  1  0  0  0  0
  2  1  1  0  0  0  0
  3  2  1  0  0  0  0
  4 19  1  0  0  0  0
  4  3  2  0  0  0  0
  5  4  1  0  0  0  0
  6  5  1  0  0  0  0
  7  6  1  0  0  0  0
  7  8  1  0  0  0  0
  9  7  1  0  0  0  0
 10  7  1  0  0  0  0
 11  5  2  0  0  0  0
 11 12  1  0  0  0  0
 12 13  2  0  0  0  0
 13 20  1  0  0  0  0
 13  3  1  0  0  0  0
 14 12  1  0  0  0  0
 15 11  1  0  0  0  0
 21 15  1  0  0  0  0
M  END
