313235787.xyz
 OpenBabel08132112093D
Cc1cc(C(F)F)c(c(c1)Cl)S
 19 19  0  0  0  0  0  0  0  0999 V2000
    0.1362    0.0826    6.1442 C   0  0  0  0  0  0  0  0  0  0  0  0
    0.0807    0.0504    4.6391 C   0  0  0  0  0  0  0  0  0  0  0  0
    1.2533    0.0294    3.8719 C   0  0  0  0  0  0  0  0  0  0  0  0
    1.2294   -0.0000    2.4790 C   0  0  0  0  0  0  0  0  0  0  0  0
    2.5561   -0.0693    1.7665 C   0  0  0  0  0  0  0  0  0  0  0  0
    2.6652    0.9065    0.8227 F   0  0  0  0  0  0  0  0  0  0  0  0
    2.7096   -1.2609    1.1275 F   0  0  0  0  0  0  0  0  0  0  0  0
    0.0000    0.0000    1.7732 C   0  0  0  0  0  0  0  0  0  0  0  0
   -1.1719    0.0233    2.5535 C   0  0  0  0  0  0  0  0  0  0  0  0
   -1.1329    0.0423    3.9509 C   0  0  0  0  0  0  0  0  0  0  0  0
   -2.7583    0.0270    1.8065 Cl  0  0  0  0  0  0  0  0  0  0  0  0
    0.0000    0.0000    0.0000 S   0  0  0  0  0  0  0  0  0  0  0  0
   -0.8703    0.0559    6.5852 H   0  0  0  0  0  0  0  0  0  0  0  0
    0.7027   -0.7759    6.5406 H   0  0  0  0  0  0  0  0  0  0  0  0
    0.6383    0.9959    6.5043 H   0  0  0  0  0  0  0  0  0  0  0  0
    2.2224    0.0303    4.3790 H   0  0  0  0  0  0  0  0  0  0  0  0
    3.3941    0.0484    2.4746 H   0  0  0  0  0  0  0  0  0  0  0  0
   -2.0777    0.0567    4.4969 H   0  0  0  0  0  0  0  0  0  0  0  0
   -1.3256   -0.2333   -0.1149 H   0  0  0  0  0  0  0  0  0  0  0  0
  1 15  1  0  0  0  0
  1 14  1  0  0  0  0
  1 13  1  0  0  0  0
  2  1  1  0  0  0  0
  3 16  1  0  0  0  0
  3  2  2  0  0  0  0
  4  3  1  0  0  0  0
  5 17  1  0  0  0  0
  5  4  1  0  0  0  0
  6  5  1  0  0  0  0
  7  5  1  0  0  0  0
  8  4  2  0  0  0  0
  8  9  1  0  0  0  0
  9 10  2  0  0  0  0
 10 18  1  0  0  0  0
 10  2  1  0  0  0  0
 11  9  1  0  0  0  0
 12  8  1  0  0  0  0
 19 12  1  0  0  0  0
M  END
