313238775.xyz
 OpenBabel08132112093D
CCOc1ccc(c(c1S)C(=O)C)F
 25 25  0  0  0  0  0  0  0  0999 V2000
   -4.2234    1.1160    0.6759 C   0  0  0  0  0  0  0  0  0  0  0  0
   -2.9799    1.2810    1.5216 C   0  0  0  0  0  0  0  0  0  0  0  0
   -2.4186   -0.0178    1.7564 O   0  0  0  0  0  0  0  0  0  0  0  0
   -1.2402   -0.0187    2.4566 C   0  0  0  0  0  0  0  0  0  0  0  0
   -1.2848   -0.0596    3.8477 C   0  0  0  0  0  0  0  0  0  0  0  0
   -0.1108   -0.0663    4.5995 C   0  0  0  0  0  0  0  0  0  0  0  0
    1.1010   -0.0319    3.9279 C   0  0  0  0  0  0  0  0  0  0  0  0
    1.2092    0.0000    2.5237 C   0  0  0  0  0  0  0  0  0  0  0  0
   -0.0000    0.0000    1.7700 C   0  0  0  0  0  0  0  0  0  0  0  0
    0.0000    0.0000    0.0000 S   0  0  0  0  0  0  0  0  0  0  0  0
    2.5241    0.0467    1.8081 C   0  0  0  0  0  0  0  0  0  0  0  0
    2.5429    0.2583    0.6082 O   0  0  0  0  0  0  0  0  0  0  0  0
    3.8240   -0.1786    2.5502 C   0  0  0  0  0  0  0  0  0  0  0  0
    2.2132   -0.0227    4.6836 F   0  0  0  0  0  0  0  0  0  0  0  0
   -4.6996    2.0934    0.5040 H   0  0  0  0  0  0  0  0  0  0  0  0
   -3.9758    0.6751   -0.3020 H   0  0  0  0  0  0  0  0  0  0  0  0
   -4.9474    0.4560    1.1775 H   0  0  0  0  0  0  0  0  0  0  0  0
   -3.2168    1.7529    2.4928 H   0  0  0  0  0  0  0  0  0  0  0  0
   -2.2319    1.9173    1.0150 H   0  0  0  0  0  0  0  0  0  0  0  0
   -2.2622   -0.0870    4.3333 H   0  0  0  0  0  0  0  0  0  0  0  0
   -0.1174   -0.0923    5.6895 H   0  0  0  0  0  0  0  0  0  0  0  0
   -1.3303   -0.2732   -0.0405 H   0  0  0  0  0  0  0  0  0  0  0  0
    4.6277   -0.2355    1.8055 H   0  0  0  0  0  0  0  0  0  0  0  0
    3.7928   -1.0966    3.1545 H   0  0  0  0  0  0  0  0  0  0  0  0
    4.0213    0.6503    3.2463 H   0  0  0  0  0  0  0  0  0  0  0  0
  1 17  1  0  0  0  0
  1  2  1  0  0  0  0
  2  3  1  0  0  0  0
  2 18  1  0  0  0  0
  3  4  1  0  0  0  0
  4  5  1  0  0  0  0
  5 20  1  0  0  0  0
  5  6  2  0  0  0  0
  6 21  1  0  0  0  0
  7  6  1  0  0  0  0
  7 14  1  0  0  0  0
  8  7  2  0  0  0  0
  9  4  2  0  0  0  0
  9  8  1  0  0  0  0
 10  9  1  0  0  0  0
 11  8  1  0  0  0  0
 11 13  1  0  0  0  0
 12 11  2  0  0  0  0
 13 24  1  0  0  0  0
 13 25  1  0  0  0  0
 15  1  1  0  0  0  0
 16  1  1  0  0  0  0
 19  2  1  0  0  0  0
 22 10  1  0  0  0  0
 23 13  1  0  0  0  0
M  END
