313216355.xyz
 OpenBabel08132112093D
[O-][N+](=O)c1ccc(c(c1C(F)(F)F)S)Br
 18 18  0  0  0  0  0  0  0  0999 V2000
    2.5506    0.4791    5.6705 O   0  0  0  0  0  0  0  0  0  0  0  0
    2.4170   -0.2526    4.7071 N   0  0  0  0  0  0  0  0  0  0  0  0
    3.1511   -1.1693    4.3919 O   0  0  0  0  0  0  0  0  0  0  0  0
    1.1938   -0.0648    3.8928 C   0  0  0  0  0  0  0  0  0  0  0  0
    0.0078   -0.0372    4.6171 C   0  0  0  0  0  0  0  0  0  0  0  0
   -1.1957   -0.0077    3.9249 C   0  0  0  0  0  0  0  0  0  0  0  0
   -1.2008    0.0001    2.5310 C   0  0  0  0  0  0  0  0  0  0  0  0
    0.0000    0.0000    1.7762 C   0  0  0  0  0  0  0  0  0  0  0  0
    1.2271    0.0000    2.4930 C   0  0  0  0  0  0  0  0  0  0  0  0
    2.5669    0.0806    1.7638 C   0  0  0  0  0  0  0  0  0  0  0  0
    2.4660    0.8196    0.6453 F   0  0  0  0  0  0  0  0  0  0  0  0
    3.4967    0.6808    2.5193 F   0  0  0  0  0  0  0  0  0  0  0  0
    3.0194   -1.1238    1.4099 F   0  0  0  0  0  0  0  0  0  0  0  0
    0.0000    0.0000    0.0000 S   0  0  0  0  0  0  0  0  0  0  0  0
   -2.9176    0.0296    1.7037 Br  0  0  0  0  0  0  0  0  0  0  0  0
    0.0402   -0.0536    5.7059 H   0  0  0  0  0  0  0  0  0  0  0  0
   -2.1415    0.0040    4.4671 H   0  0  0  0  0  0  0  0  0  0  0  0
   -1.2983   -0.3613   -0.1028 H   0  0  0  0  0  0  0  0  0  0  0  0
  2  1  2  0  0  0  0
  3  2  2  0  0  0  0
  4  5  2  0  0  0  0
  4  2  1  0  0  0  0
  5 16  1  0  0  0  0
  6 17  1  0  0  0  0
  6  5  1  0  0  0  0
  7  6  2  0  0  0  0
  8  9  2  0  0  0  0
  8  7  1  0  0  0  0
  9  4  1  0  0  0  0
 10  9  1  0  0  0  0
 10 12  1  0  0  0  0
 11 10  1  0  0  0  0
 13 10  1  0  0  0  0
 14  8  1  0  0  0  0
 15  7  1  0  0  0  0
 18 14  1  0  0  0  0
M  END
