313203182.xyz
 OpenBabel08132112093D
Clc1cc(OC(F)(F)F)c(c(c1)Cl)S
 17 17  0  0  0  0  0  0  0  0999 V2000
   -0.3617   -0.0362    6.3187 Cl  0  0  0  0  0  0  0  0  0  0  0  0
   -0.2266   -0.0195    4.5823 C   0  0  0  0  0  0  0  0  0  0  0  0
   -1.3826   -0.0316    3.7998 C   0  0  0  0  0  0  0  0  0  0  0  0
   -1.2488   -0.0117    2.4161 C   0  0  0  0  0  0  0  0  0  0  0  0
   -2.3725   -0.0668    1.5983 O   0  0  0  0  0  0  0  0  0  0  0  0
   -3.2016    1.0077    1.5504 C   0  0  0  0  0  0  0  0  0  0  0  0
   -2.5390    2.1424    1.3120 F   0  0  0  0  0  0  0  0  0  0  0  0
   -4.0753    0.7980    0.5797 F   0  0  0  0  0  0  0  0  0  0  0  0
   -3.8756    1.1744    2.7006 F   0  0  0  0  0  0  0  0  0  0  0  0
   -0.0000    0.0000    1.7669 C   0  0  0  0  0  0  0  0  0  0  0  0
    1.1394    0.0000    2.5961 C   0  0  0  0  0  0  0  0  0  0  0  0
    1.0350   -0.0040    3.9888 C   0  0  0  0  0  0  0  0  0  0  0  0
    2.7443    0.0106    1.9050 Cl  0  0  0  0  0  0  0  0  0  0  0  0
    0.0000    0.0000    0.0000 S   0  0  0  0  0  0  0  0  0  0  0  0
   -2.3710   -0.0561    4.2543 H   0  0  0  0  0  0  0  0  0  0  0  0
    1.9357   -0.0002    4.6010 H   0  0  0  0  0  0  0  0  0  0  0  0
    1.3433    0.0902   -0.1138 H   0  0  0  0  0  0  0  0  0  0  0  0
  2  1  1  0  0  0  0
  3 15  1  0  0  0  0
  3  2  2  0  0  0  0
  4  3  1  0  0  0  0
  5  4  1  0  0  0  0
  6  5  1  0  0  0  0
  6  9  1  0  0  0  0
  7  6  1  0  0  0  0
  8  6  1  0  0  0  0
 10  4  2  0  0  0  0
 10 11  1  0  0  0  0
 11 12  2  0  0  0  0
 12  2  1  0  0  0  0
 12 16  1  0  0  0  0
 13 11  1  0  0  0  0
 14 10  1  0  0  0  0
 17 14  1  0  0  0  0
M  END
