313275719.xyz
 OpenBabel08132112093D
CCOc1ccc(c(c1[N+](=O)[O-])S)CC(=O)O
 28 28  0  0  0  0  0  0  0  0999 V2000
    3.8414    0.0010    6.4196 C   0  0  0  0  0  0  0  0  0  0  0  0
    2.3826   -0.0298    6.0155 C   0  0  0  0  0  0  0  0  0  0  0  0
    2.3269    0.0596    4.5964 O   0  0  0  0  0  0  0  0  0  0  0  0
    1.1451   -0.0130    3.9643 C   0  0  0  0  0  0  0  0  0  0  0  0
   -0.0987   -0.0659    4.6030 C   0  0  0  0  0  0  0  0  0  0  0  0
   -1.2625   -0.1023    3.8359 C   0  0  0  0  0  0  0  0  0  0  0  0
   -1.2482   -0.0652    2.4409 C   0  0  0  0  0  0  0  0  0  0  0  0
    0.0000    0.0000    1.7776 C   0  0  0  0  0  0  0  0  0  0  0  0
    1.1719   -0.0000    2.5527 C   0  0  0  0  0  0  0  0  0  0  0  0
    2.4991   -0.0172    1.9160 N   0  0  0  0  0  0  0  0  0  0  0  0
    2.7588    0.8771    1.1175 O   0  0  0  0  0  0  0  0  0  0  0  0
    3.2529   -0.9192    2.2161 O   0  0  0  0  0  0  0  0  0  0  0  0
    0.0000    0.0000    0.0000 S   0  0  0  0  0  0  0  0  0  0  0  0
   -2.5420   -0.0907    1.6750 C   0  0  0  0  0  0  0  0  0  0  0  0
   -2.8540   -1.4352    1.0395 C   0  0  0  0  0  0  0  0  0  0  0  0
   -2.1472   -2.4085    1.0619 O   0  0  0  0  0  0  0  0  0  0  0  0
   -4.0532   -1.4097    0.4248 O   0  0  0  0  0  0  0  0  0  0  0  0
    3.9331   -0.0707    7.5140 H   0  0  0  0  0  0  0  0  0  0  0  0
    4.3150    0.9373    6.0884 H   0  0  0  0  0  0  0  0  0  0  0  0
    4.3841   -0.8399    5.9631 H   0  0  0  0  0  0  0  0  0  0  0  0
    1.8263    0.8139    6.4638 H   0  0  0  0  0  0  0  0  0  0  0  0
    1.8974   -0.9663    6.3452 H   0  0  0  0  0  0  0  0  0  0  0  0
   -0.1651   -0.0710    5.6893 H   0  0  0  0  0  0  0  0  0  0  0  0
   -2.2268   -0.1458    4.3483 H   0  0  0  0  0  0  0  0  0  0  0  0
    1.1511    0.6981   -0.1310 H   0  0  0  0  0  0  0  0  0  0  0  0
   -2.5399    0.6553    0.8623 H   0  0  0  0  0  0  0  0  0  0  0  0
   -3.3889    0.1696    2.3285 H   0  0  0  0  0  0  0  0  0  0  0  0
   -4.1850   -2.2895    0.0316 H   0  0  0  0  0  0  0  0  0  0  0  0
  1 18  1  0  0  0  0
  2 22  1  0  0  0  0
  2  1  1  0  0  0  0
  2 21  1  0  0  0  0
  3  2  1  0  0  0  0
  4  3  1  0  0  0  0
  4  5  1  0  0  0  0
  5 23  1  0  0  0  0
  6 24  1  0  0  0  0
  6  5  2  0  0  0  0
  7  6  1  0  0  0  0
  8  7  2  0  0  0  0
  8  9  1  0  0  0  0
  9  4  2  0  0  0  0
 10 12  2  0  0  0  0
 10  9  1  0  0  0  0
 11 10  2  0  0  0  0
 13  8  1  0  0  0  0
 14 27  1  0  0  0  0
 14  7  1  0  0  0  0
 15 16  2  0  0  0  0
 15 14  1  0  0  0  0
 17 15  1  0  0  0  0
 19  1  1  0  0  0  0
 20  1  1  0  0  0  0
 25 13  1  0  0  0  0
 26 14  1  0  0  0  0
 28 17  1  0  0  0  0
M  END
