313202875.xyz
 OpenBabel08132112093D
Clc1cc([N+](=O)[O-])c(c(c1)C(=O)O)S
 18 18  0  0  0  0  0  0  0  0999 V2000
    0.1312   -0.2092    6.3541 Cl  0  0  0  0  0  0  0  0  0  0  0  0
    0.0923   -0.1094    4.6188 C   0  0  0  0  0  0  0  0  0  0  0  0
    1.2713   -0.0661    3.8882 C   0  0  0  0  0  0  0  0  0  0  0  0
    1.2128   -0.0000    2.4966 C   0  0  0  0  0  0  0  0  0  0  0  0
    2.5225    0.0521    1.8183 N   0  0  0  0  0  0  0  0  0  0  0  0
    2.5419    0.4563    0.6673 O   0  0  0  0  0  0  0  0  0  0  0  0
    3.5037   -0.2972    2.4535 O   0  0  0  0  0  0  0  0  0  0  0  0
    0.0000    0.0000    1.7626 C   0  0  0  0  0  0  0  0  0  0  0  0
   -1.1944    0.0003    2.5495 C   0  0  0  0  0  0  0  0  0  0  0  0
   -1.1290   -0.0680    3.9474 C   0  0  0  0  0  0  0  0  0  0  0  0
   -2.5736    0.0550    1.9449 C   0  0  0  0  0  0  0  0  0  0  0  0
   -2.8972   -0.4756    0.9109 O   0  0  0  0  0  0  0  0  0  0  0  0
   -3.4902    0.7392    2.6544 O   0  0  0  0  0  0  0  0  0  0  0  0
    0.0000    0.0000    0.0000 S   0  0  0  0  0  0  0  0  0  0  0  0
    2.2469   -0.0951    4.3696 H   0  0  0  0  0  0  0  0  0  0  0  0
   -2.0465   -0.1148    4.5366 H   0  0  0  0  0  0  0  0  0  0  0  0
   -3.0688    1.2411    3.3668 H   0  0  0  0  0  0  0  0  0  0  0  0
   -1.3021   -0.3835   -0.0716 H   0  0  0  0  0  0  0  0  0  0  0  0
  2  1  1  0  0  0  0
  3 15  1  0  0  0  0
  3  2  2  0  0  0  0
  4  3  1  0  0  0  0
  5  7  2  0  0  0  0
  5  4  1  0  0  0  0
  6  5  2  0  0  0  0
  8  4  2  0  0  0  0
  8  9  1  0  0  0  0
  9 10  2  0  0  0  0
 10 16  1  0  0  0  0
 10  2  1  0  0  0  0
 11  9  1  0  0  0  0
 11 13  1  0  0  0  0
 12 11  2  0  0  0  0
 13 17  1  0  0  0  0
 14  8  1  0  0  0  0
 18 14  1  0  0  0  0
M  END
