313276016.xyz
 OpenBabel08132112103D
CCOC(=O)c1cc(S)cc(c1OCC)Br
 29 29  0  0  0  0  0  0  0  0999 V2000
   -5.8610   -0.9954    3.1032 C   0  0  0  0  0  0  0  0  0  0  0  0
   -4.9567   -0.4361    4.1794 C   0  0  0  0  0  0  0  0  0  0  0  0
   -3.6127   -0.4427    3.6725 O   0  0  0  0  0  0  0  0  0  0  0  0
   -2.6584    0.0362    4.4919 C   0  0  0  0  0  0  0  0  0  0  0  0
   -2.8965    0.4365    5.6076 O   0  0  0  0  0  0  0  0  0  0  0  0
   -1.3145    0.0233    3.8329 C   0  0  0  0  0  0  0  0  0  0  0  0
   -1.2361   -0.0013    2.4337 C   0  0  0  0  0  0  0  0  0  0  0  0
   -0.0000    0.0000    1.7789 C   0  0  0  0  0  0  0  0  0  0  0  0
    0.0000    0.0000    0.0000 S   0  0  0  0  0  0  0  0  0  0  0  0
    1.1757    0.0000    2.5421 C   0  0  0  0  0  0  0  0  0  0  0  0
    1.0976    0.0042    3.9338 C   0  0  0  0  0  0  0  0  0  0  0  0
   -0.1348    0.0183    4.6137 C   0  0  0  0  0  0  0  0  0  0  0  0
   -0.1704   -0.0505    5.9603 O   0  0  0  0  0  0  0  0  0  0  0  0
   -0.2120    1.1909    6.6852 C   0  0  0  0  0  0  0  0  0  0  0  0
   -0.5579    0.8694    8.1205 C   0  0  0  0  0  0  0  0  0  0  0  0
    2.7074   -0.0385    4.9467 Br  0  0  0  0  0  0  0  0  0  0  0  0
   -5.5674   -2.0227    2.8389 H   0  0  0  0  0  0  0  0  0  0  0  0
   -5.8179   -0.3787    2.1923 H   0  0  0  0  0  0  0  0  0  0  0  0
   -6.9025   -1.0132    3.4593 H   0  0  0  0  0  0  0  0  0  0  0  0
   -4.9896   -1.0361    5.1029 H   0  0  0  0  0  0  0  0  0  0  0  0
   -5.2279    0.5951    4.4579 H   0  0  0  0  0  0  0  0  0  0  0  0
   -2.1633   -0.0202    1.8616 H   0  0  0  0  0  0  0  0  0  0  0  0
    1.3395   -0.0794   -0.1574 H   0  0  0  0  0  0  0  0  0  0  0  0
    2.1565   -0.0069    2.0647 H   0  0  0  0  0  0  0  0  0  0  0  0
   -0.9761    1.8429    6.2357 H   0  0  0  0  0  0  0  0  0  0  0  0
    0.7736    1.6826    6.6033 H   0  0  0  0  0  0  0  0  0  0  0  0
    0.1813    0.1763    8.5508 H   0  0  0  0  0  0  0  0  0  0  0  0
   -0.5684    1.7897    8.7251 H   0  0  0  0  0  0  0  0  0  0  0  0
   -1.5520    0.4019    8.1668 H   0  0  0  0  0  0  0  0  0  0  0  0
  1 19  1  0  0  0  0
  1  2  1  0  0  0  0
  2 21  1  0  0  0  0
  2 20  1  0  0  0  0
  3  2  1  0  0  0  0
  3  4  1  0  0  0  0
  4  5  2  0  0  0  0
  6  4  1  0  0  0  0
  6 12  2  0  0  0  0
  7  6  1  0  0  0  0
  8  7  2  0  0  0  0
  8 10  1  0  0  0  0
  9  8  1  0  0  0  0
 10 11  2  0  0  0  0
 11 12  1  0  0  0  0
 11 16  1  0  0  0  0
 12 13  1  0  0  0  0
 13 14  1  0  0  0  0
 14 15  1  0  0  0  0
 15 29  1  0  0  0  0
 15 27  1  0  0  0  0
 15 28  1  0  0  0  0
 17  1  1  0  0  0  0
 18  1  1  0  0  0  0
 22  7  1  0  0  0  0
 23  9  1  0  0  0  0
 24 10  1  0  0  0  0
 25 14  1  0  0  0  0
 26 14  1  0  0  0  0
M  END
