313277881.xyz
 OpenBabel08132112103D
CCOC(=O)Cc1cc(c(cc1OCC)S)C(F)(F)F
 35 35  0  0  0  0  0  0  0  0999 V2000
    3.7977    2.5577    7.7517 C   0  0  0  0  0  0  0  0  0  0  0  0
    2.4047    2.3641    8.3248 C   0  0  0  0  0  0  0  0  0  0  0  0
    1.7471    1.2256    7.7425 O   0  0  0  0  0  0  0  0  0  0  0  0
    1.1580    1.4080    6.5467 C   0  0  0  0  0  0  0  0  0  0  0  0
    1.1528    2.4552    5.9506 O   0  0  0  0  0  0  0  0  0  0  0  0
    0.4746    0.1290    6.0859 C   0  0  0  0  0  0  0  0  0  0  0  0
    0.2817    0.0789    4.5978 C   0  0  0  0  0  0  0  0  0  0  0  0
   -0.9702    0.0769    3.9990 C   0  0  0  0  0  0  0  0  0  0  0  0
   -1.1401    0.0462    2.6060 C   0  0  0  0  0  0  0  0  0  0  0  0
   -0.0000    0.0000    1.7806 C   0  0  0  0  0  0  0  0  0  0  0  0
    1.2738    0.0000    2.3725 C   0  0  0  0  0  0  0  0  0  0  0  0
    1.4177    0.0460    3.7610 C   0  0  0  0  0  0  0  0  0  0  0  0
    2.6076    0.0459    4.3993 O   0  0  0  0  0  0  0  0  0  0  0  0
    3.8174    0.1223    3.6560 C   0  0  0  0  0  0  0  0  0  0  0  0
    4.9655    0.1802    4.6417 C   0  0  0  0  0  0  0  0  0  0  0  0
    0.0000    0.0000    0.0000 S   0  0  0  0  0  0  0  0  0  0  0  0
   -2.5357    0.1029    2.0456 C   0  0  0  0  0  0  0  0  0  0  0  0
   -2.8192   -0.9749    1.2686 F   0  0  0  0  0  0  0  0  0  0  0  0
   -3.4688    0.1311    3.0100 F   0  0  0  0  0  0  0  0  0  0  0  0
   -2.7337    1.1851    1.2715 F   0  0  0  0  0  0  0  0  0  0  0  0
    3.7402    2.8029    6.6815 H   0  0  0  0  0  0  0  0  0  0  0  0
    4.4023    1.6463    7.8775 H   0  0  0  0  0  0  0  0  0  0  0  0
    4.3071    3.3860    8.2692 H   0  0  0  0  0  0  0  0  0  0  0  0
    1.7861    3.2586    8.1585 H   0  0  0  0  0  0  0  0  0  0  0  0
    2.4404    2.1459    9.4016 H   0  0  0  0  0  0  0  0  0  0  0  0
    1.0753   -0.7193    6.4468 H   0  0  0  0  0  0  0  0  0  0  0  0
   -0.4983    0.0752    6.6008 H   0  0  0  0  0  0  0  0  0  0  0  0
   -1.8572    0.1147    4.6319 H   0  0  0  0  0  0  0  0  0  0  0  0
    2.1480   -0.0541    1.7253 H   0  0  0  0  0  0  0  0  0  0  0  0
    3.9059   -0.7608    2.9971 H   0  0  0  0  0  0  0  0  0  0  0  0
    3.7980    1.0207    3.0131 H   0  0  0  0  0  0  0  0  0  0  0  0
    5.9245    0.2320    4.1044 H   0  0  0  0  0  0  0  0  0  0  0  0
    4.9714   -0.7148    5.2821 H   0  0  0  0  0  0  0  0  0  0  0  0
    4.8768    1.0657    5.2875 H   0  0  0  0  0  0  0  0  0  0  0  0
   -1.2362   -0.5040   -0.1871 H   0  0  0  0  0  0  0  0  0  0  0  0
  1 22  1  0  0  0  0
  1 23  1  0  0  0  0
  1  2  1  0  0  0  0
  2 25  1  0  0  0  0
  3  2  1  0  0  0  0
  4  3  1  0  0  0  0
  5  4  2  0  0  0  0
  6 26  1  0  0  0  0
  6  4  1  0  0  0  0
  6 27  1  0  0  0  0
  7  6  1  0  0  0  0
  8  7  1  0  0  0  0
  8 28  1  0  0  0  0
  9  8  2  0  0  0  0
 10 11  2  0  0  0  0
 10  9  1  0  0  0  0
 11 12  1  0  0  0  0
 12 13  1  0  0  0  0
 12  7  2  0  0  0  0
 14 13  1  0  0  0  0
 14 15  1  0  0  0  0
 15 33  1  0  0  0  0
 15 34  1  0  0  0  0
 16 10  1  0  0  0  0
 17  9  1  0  0  0  0
 17 19  1  0  0  0  0
 18 17  1  0  0  0  0
 20 17  1  0  0  0  0
 21  1  1  0  0  0  0
 24  2  1  0  0  0  0
 29 11  1  0  0  0  0
 30 14  1  0  0  0  0
 31 14  1  0  0  0  0
 32 15  1  0  0  0  0
 35 16  1  0  0  0  0
M  END
