313267122.xyz
 OpenBabel08132112093D
CCOC(=O)c1ccc(c(c1OCC)I)S
 29 29  0  0  0  0  0  0  0  0999 V2000
    0.1563    1.0908    8.8766 C   0  0  0  0  0  0  0  0  0  0  0  0
    0.2953   -0.2910    8.2625 C   0  0  0  0  0  0  0  0  0  0  0  0
    0.5171   -0.2157    6.8444 O   0  0  0  0  0  0  0  0  0  0  0  0
   -0.5670   -0.0968    6.0606 C   0  0  0  0  0  0  0  0  0  0  0  0
   -1.6962   -0.0661    6.5008 O   0  0  0  0  0  0  0  0  0  0  0  0
   -0.2696   -0.0237    4.5975 C   0  0  0  0  0  0  0  0  0  0  0  0
   -1.3941   -0.0111    3.7533 C   0  0  0  0  0  0  0  0  0  0  0  0
   -1.2710    0.0029    2.3764 C   0  0  0  0  0  0  0  0  0  0  0  0
   -0.0000    0.0000    1.7651 C   0  0  0  0  0  0  0  0  0  0  0  0
    1.1326    0.0000    2.6004 C   0  0  0  0  0  0  0  0  0  0  0  0
    1.0154   -0.0075    4.0076 C   0  0  0  0  0  0  0  0  0  0  0  0
    2.1494   -0.0378    4.7437 O   0  0  0  0  0  0  0  0  0  0  0  0
    2.5906    1.1969    5.3219 C   0  0  0  0  0  0  0  0  0  0  0  0
    3.7229    0.8834    6.2728 C   0  0  0  0  0  0  0  0  0  0  0  0
    3.1131   -0.0084    1.8156 I   0  0  0  0  0  0  0  0  0  0  0  0
    0.0000    0.0000    0.0000 S   0  0  0  0  0  0  0  0  0  0  0  0
    0.0532    1.0079    9.9702 H   0  0  0  0  0  0  0  0  0  0  0  0
   -0.7367    1.5995    8.4857 H   0  0  0  0  0  0  0  0  0  0  0  0
    1.0425    1.7081    8.6613 H   0  0  0  0  0  0  0  0  0  0  0  0
   -0.6010   -0.8982    8.4530 H   0  0  0  0  0  0  0  0  0  0  0  0
    1.1786   -0.8167    8.6523 H   0  0  0  0  0  0  0  0  0  0  0  0
   -2.3774   -0.0233    4.2246 H   0  0  0  0  0  0  0  0  0  0  0  0
   -2.1632    0.0077    1.7468 H   0  0  0  0  0  0  0  0  0  0  0  0
    1.7518    1.6768    5.8501 H   0  0  0  0  0  0  0  0  0  0  0  0
    2.9209    1.8721    4.5116 H   0  0  0  0  0  0  0  0  0  0  0  0
    4.5466    0.3836    5.7412 H   0  0  0  0  0  0  0  0  0  0  0  0
    3.3713    0.2157    7.0731 H   0  0  0  0  0  0  0  0  0  0  0  0
    4.1092    1.8098    6.7253 H   0  0  0  0  0  0  0  0  0  0  0  0
    1.3447    0.0143   -0.1576 H   0  0  0  0  0  0  0  0  0  0  0  0
  1 17  1  0  0  0  0
  2 20  1  0  0  0  0
  2 21  1  0  0  0  0
  2  1  1  0  0  0  0
  3  2  1  0  0  0  0
  4  5  2  0  0  0  0
  4  3  1  0  0  0  0
  6  4  1  0  0  0  0
  7 22  1  0  0  0  0
  7  6  2  0  0  0  0
  8  7  1  0  0  0  0
  9  8  2  0  0  0  0
  9 10  1  0  0  0  0
 10 11  2  0  0  0  0
 11  6  1  0  0  0  0
 11 12  1  0  0  0  0
 12 13  1  0  0  0  0
 13 24  1  0  0  0  0
 13 14  1  0  0  0  0
 14 28  1  0  0  0  0
 14 27  1  0  0  0  0
 15 10  1  0  0  0  0
 16  9  1  0  0  0  0
 18  1  1  0  0  0  0
 19  1  1  0  0  0  0
 23  8  1  0  0  0  0
 25 13  1  0  0  0  0
 26 14  1  0  0  0  0
 29 16  1  0  0  0  0
M  END
