313203776.xyz
 OpenBabel08132112093D
FC(c1cc(Cl)c(cc1C(=O)N)S)F
 20 20  0  0  0  0  0  0  0  0999 V2000
    0.5868   -1.1355    6.6587 F   0  0  0  0  0  0  0  0  0  0  0  0
    0.2040    0.0686    6.0981 C   0  0  0  0  0  0  0  0  0  0  0  0
    0.2158    0.0032    4.5957 C   0  0  0  0  0  0  0  0  0  0  0  0
   -1.0313    0.0233    3.9665 C   0  0  0  0  0  0  0  0  0  0  0  0
   -1.1490    0.0059    2.5774 C   0  0  0  0  0  0  0  0  0  0  0  0
   -2.7548    0.0156    1.8867 Cl  0  0  0  0  0  0  0  0  0  0  0  0
   -0.0000    0.0000    1.7655 C   0  0  0  0  0  0  0  0  0  0  0  0
    1.2473   -0.0000    2.4105 C   0  0  0  0  0  0  0  0  0  0  0  0
    1.3831   -0.0254    3.7986 C   0  0  0  0  0  0  0  0  0  0  0  0
    2.8230   -0.0172    4.2857 C   0  0  0  0  0  0  0  0  0  0  0  0
    3.6736    0.5908    3.6583 O   0  0  0  0  0  0  0  0  0  0  0  0
    3.1085   -0.7690    5.3777 N   0  0  0  0  0  0  0  0  0  0  0  0
    0.0000    0.0000    0.0000 S   0  0  0  0  0  0  0  0  0  0  0  0
    1.0566    1.0071    6.5753 F   0  0  0  0  0  0  0  0  0  0  0  0
   -0.8053    0.2848    6.4836 H   0  0  0  0  0  0  0  0  0  0  0  0
   -1.9448    0.0637    4.5626 H   0  0  0  0  0  0  0  0  0  0  0  0
    2.1628    0.0296    1.8169 H   0  0  0  0  0  0  0  0  0  0  0  0
    4.0574   -0.7281    5.7305 H   0  0  0  0  0  0  0  0  0  0  0  0
    2.3974   -1.2391    5.9222 H   0  0  0  0  0  0  0  0  0  0  0  0
   -1.3428    0.0282   -0.1458 H   0  0  0  0  0  0  0  0  0  0  0  0
  2 15  1  0  0  0  0
  2 14  1  0  0  0  0
  2  1  1  0  0  0  0
  3  2  1  0  0  0  0
  4 16  1  0  0  0  0
  4  3  1  0  0  0  0
  5  4  2  0  0  0  0
  6  5  1  0  0  0  0
  7  8  2  0  0  0  0
  7  5  1  0  0  0  0
  8  9  1  0  0  0  0
  9 10  1  0  0  0  0
  9  3  2  0  0  0  0
 10 12  1  0  0  0  0
 11 10  2  0  0  0  0
 12 18  1  0  0  0  0
 12 19  1  0  0  0  0
 13  7  1  0  0  0  0
 17  8  1  0  0  0  0
 20 13  1  0  0  0  0
M  END
