313296098.xyz
 OpenBabel08132112103D
OC(=O)Cc1cc(F)c(cc1[N+](=O)[O-])S
 21 21  0  0  0  0  0  0  0  0999 V2000
   -0.7221    2.2398    6.5910 O   0  0  0  0  0  0  0  0  0  0  0  0
    0.3075    1.3960    6.6850 C   0  0  0  0  0  0  0  0  0  0  0  0
    1.3780    1.7267    7.1179 O   0  0  0  0  0  0  0  0  0  0  0  0
    0.0393   -0.0227    6.1476 C   0  0  0  0  0  0  0  0  0  0  0  0
   -0.0447   -0.0098    4.6392 C   0  0  0  0  0  0  0  0  0  0  0  0
    1.1606   -0.0110    3.9216 C   0  0  0  0  0  0  0  0  0  0  0  0
    1.1781    0.0000    2.5357 C   0  0  0  0  0  0  0  0  0  0  0  0
    2.3574    0.0042    1.9070 F   0  0  0  0  0  0  0  0  0  0  0  0
    0.0000    0.0000    1.7676 C   0  0  0  0  0  0  0  0  0  0  0  0
   -1.2069   -0.0040    2.4665 C   0  0  0  0  0  0  0  0  0  0  0  0
   -1.2211    0.0154    3.8651 C   0  0  0  0  0  0  0  0  0  0  0  0
   -2.5524    0.0458    4.4808 N   0  0  0  0  0  0  0  0  0  0  0  0
   -3.4757   -0.4574    3.8757 O   0  0  0  0  0  0  0  0  0  0  0  0
   -2.6779    0.5962    5.5790 O   0  0  0  0  0  0  0  0  0  0  0  0
    0.0000    0.0000    0.0000 S   0  0  0  0  0  0  0  0  0  0  0  0
   -1.5063    1.7720    6.2343 H   0  0  0  0  0  0  0  0  0  0  0  0
   -0.8746   -0.4269    6.6011 H   0  0  0  0  0  0  0  0  0  0  0  0
    0.8928   -0.6375    6.4564 H   0  0  0  0  0  0  0  0  0  0  0  0
    2.1134   -0.0196    4.4541 H   0  0  0  0  0  0  0  0  0  0  0  0
   -2.1583   -0.0132    1.9353 H   0  0  0  0  0  0  0  0  0  0  0  0
    1.3430    0.0420   -0.1357 H   0  0  0  0  0  0  0  0  0  0  0  0
  1  2  1  0  0  0  0
  2  3  2  0  0  0  0
  4 18  1  0  0  0  0
  4 17  1  0  0  0  0
  4  2  1  0  0  0  0
  5  4  1  0  0  0  0
  6 19  1  0  0  0  0
  6  5  1  0  0  0  0
  7  6  2  0  0  0  0
  8  7  1  0  0  0  0
  9 10  2  0  0  0  0
  9  7  1  0  0  0  0
 10 11  1  0  0  0  0
 11 12  1  0  0  0  0
 11  5  2  0  0  0  0
 12 14  2  0  0  0  0
 13 12  2  0  0  0  0
 15  9  1  0  0  0  0
 16  1  1  0  0  0  0
 20 10  1  0  0  0  0
 21 15  1  0  0  0  0
M  END
