313294126.xyz
 OpenBabel08132112103D
Cc1cc(cc(c1I)S)C(F)(F)F
 19 19  0  0  0  0  0  0  0  0999 V2000
    2.1812   -0.0104    4.9532 C   0  0  0  0  0  0  0  0  0  0  0  0
    0.9950   -0.0045    4.0262 C   0  0  0  0  0  0  0  0  0  0  0  0
   -0.2945   -0.0064    4.5677 C   0  0  0  0  0  0  0  0  0  0  0  0
   -1.4209   -0.0021    3.7412 C   0  0  0  0  0  0  0  0  0  0  0  0
   -1.2785   -0.0011    2.3602 C   0  0  0  0  0  0  0  0  0  0  0  0
    0.0000   -0.0000    1.7710 C   0  0  0  0  0  0  0  0  0  0  0  0
    1.1253    0.0000    2.6203 C   0  0  0  0  0  0  0  0  0  0  0  0
    3.0978    0.0024    1.8006 I   0  0  0  0  0  0  0  0  0  0  0  0
    0.0000    0.0000    0.0000 S   0  0  0  0  0  0  0  0  0  0  0  0
   -2.7925    0.0478    4.3653 C   0  0  0  0  0  0  0  0  0  0  0  0
   -3.7541   -0.3253    3.5054 F   0  0  0  0  0  0  0  0  0  0  0  0
   -3.0947    1.2911    4.7846 F   0  0  0  0  0  0  0  0  0  0  0  0
   -2.8742   -0.7560    5.4407 F   0  0  0  0  0  0  0  0  0  0  0  0
    2.8179    0.8743    4.7931 H   0  0  0  0  0  0  0  0  0  0  0  0
    2.8161   -0.8949    4.7850 H   0  0  0  0  0  0  0  0  0  0  0  0
    1.8533   -0.0147    6.0015 H   0  0  0  0  0  0  0  0  0  0  0  0
   -0.4173   -0.0180    5.6517 H   0  0  0  0  0  0  0  0  0  0  0  0
   -2.1629   -0.0062    1.7218 H   0  0  0  0  0  0  0  0  0  0  0  0
    1.3426   -0.0109   -0.1634 H   0  0  0  0  0  0  0  0  0  0  0  0
  1 16  1  0  0  0  0
  2  3  1  0  0  0  0
  2  1  1  0  0  0  0
  3 17  1  0  0  0  0
  4 10  1  0  0  0  0
  4  3  2  0  0  0  0
  5  4  1  0  0  0  0
  6  5  2  0  0  0  0
  6  7  1  0  0  0  0
  7  2  2  0  0  0  0
  8  7  1  0  0  0  0
  9  6  1  0  0  0  0
 10 12  1  0  0  0  0
 10 13  1  0  0  0  0
 11 10  1  0  0  0  0
 14  1  1  0  0  0  0
 15  1  1  0  0  0  0
 18  5  1  0  0  0  0
 19  9  1  0  0  0  0
M  END
