313211081.xyz
 OpenBabel08132112093D
COc1cc(S)cc(c1[N+](=O)[O-])Cl
 19 19  0  0  0  0  0  0  0  0999 V2000
   -3.7139    0.0040    3.8145 C   0  0  0  0  0  0  0  0  0  0  0  0
   -2.4787   -0.0115    4.5021 O   0  0  0  0  0  0  0  0  0  0  0  0
   -1.3317    0.0090    3.8061 C   0  0  0  0  0  0  0  0  0  0  0  0
   -1.2523    0.0008    2.4099 C   0  0  0  0  0  0  0  0  0  0  0  0
   -0.0000   -0.0000    1.7728 C   0  0  0  0  0  0  0  0  0  0  0  0
    0.0000    0.0000    0.0000 S   0  0  0  0  0  0  0  0  0  0  0  0
    1.1790    0.0000    2.5264 C   0  0  0  0  0  0  0  0  0  0  0  0
    1.0999   -0.0062    3.9214 C   0  0  0  0  0  0  0  0  0  0  0  0
   -0.1391    0.0053    4.5616 C   0  0  0  0  0  0  0  0  0  0  0  0
   -0.2381    0.0256    6.0294 N   0  0  0  0  0  0  0  0  0  0  0  0
    0.2282   -0.9251    6.6301 O   0  0  0  0  0  0  0  0  0  0  0  0
   -0.7797    0.9943    6.5290 O   0  0  0  0  0  0  0  0  0  0  0  0
    2.5739    0.0195    4.8405 Cl  0  0  0  0  0  0  0  0  0  0  0  0
   -3.8177    0.9108    3.1945 H   0  0  0  0  0  0  0  0  0  0  0  0
   -4.4935    0.0031    4.5860 H   0  0  0  0  0  0  0  0  0  0  0  0
   -3.8322   -0.8889    3.1766 H   0  0  0  0  0  0  0  0  0  0  0  0
   -2.1606   -0.0090    1.8095 H   0  0  0  0  0  0  0  0  0  0  0  0
    1.3415   -0.0220   -0.1585 H   0  0  0  0  0  0  0  0  0  0  0  0
    2.1611    0.0083    2.0547 H   0  0  0  0  0  0  0  0  0  0  0  0
  1  2  1  0  0  0  0
  1 15  1  0  0  0  0
  3  2  1  0  0  0  0
  3  9  2  0  0  0  0
  4  3  1  0  0  0  0
  5  4  2  0  0  0  0
  5  7  1  0  0  0  0
  6  5  1  0  0  0  0
  7  8  2  0  0  0  0
  8  9  1  0  0  0  0
  8 13  1  0  0  0  0
  9 10  1  0  0  0  0
 10 12  2  0  0  0  0
 10 11  2  0  0  0  0
 14  1  1  0  0  0  0
 16  1  1  0  0  0  0
 17  4  1  0  0  0  0
 18  6  1  0  0  0  0
 19  7  1  0  0  0  0
M  END
