313285030.xyz
 OpenBabel08132112103D
CCOC(=O)Cc1cc(F)c(cc1OCC)S
 32 32  0  0  0  0  0  0  0  0999 V2000
    3.3142    2.4404    8.0490 C   0  0  0  0  0  0  0  0  0  0  0  0
    1.8957    2.1929    8.5317 C   0  0  0  0  0  0  0  0  0  0  0  0
    1.3019    1.0637    7.8697 O   0  0  0  0  0  0  0  0  0  0  0  0
    0.7732    1.2809    6.6508 C   0  0  0  0  0  0  0  0  0  0  0  0
    0.7711    2.3523    6.0995 O   0  0  0  0  0  0  0  0  0  0  0  0
    0.1486    0.0061    6.1034 C   0  0  0  0  0  0  0  0  0  0  0  0
    0.0651   -0.0040    4.6041 C   0  0  0  0  0  0  0  0  0  0  0  0
   -1.1463   -0.0017    3.9178 C   0  0  0  0  0  0  0  0  0  0  0  0
   -1.1749   -0.0019    2.5263 C   0  0  0  0  0  0  0  0  0  0  0  0
   -2.3688   -0.0006    1.8969 F   0  0  0  0  0  0  0  0  0  0  0  0
   -0.0000   -0.0000    1.7735 C   0  0  0  0  0  0  0  0  0  0  0  0
    1.2286    0.0000    2.4573 C   0  0  0  0  0  0  0  0  0  0  0  0
    1.2612   -0.0049    3.8539 C   0  0  0  0  0  0  0  0  0  0  0  0
    2.4025   -0.0085    4.5886 O   0  0  0  0  0  0  0  0  0  0  0  0
    3.6595    0.1005    3.9408 C   0  0  0  0  0  0  0  0  0  0  0  0
    4.7338    0.1299    5.0083 C   0  0  0  0  0  0  0  0  0  0  0  0
    0.0000    0.0000    0.0000 S   0  0  0  0  0  0  0  0  0  0  0  0
    3.7713    3.2611    8.6243 H   0  0  0  0  0  0  0  0  0  0  0  0
    3.9336    1.5395    8.1779 H   0  0  0  0  0  0  0  0  0  0  0  0
    3.3125    2.7228    6.9865 H   0  0  0  0  0  0  0  0  0  0  0  0
    1.2658    3.0791    8.3631 H   0  0  0  0  0  0  0  0  0  0  0  0
    1.8749    1.9342    9.6001 H   0  0  0  0  0  0  0  0  0  0  0  0
    0.7367   -0.8430    6.4821 H   0  0  0  0  0  0  0  0  0  0  0  0
   -0.8580   -0.0771    6.5444 H   0  0  0  0  0  0  0  0  0  0  0  0
   -2.0953    0.0068    4.4577 H   0  0  0  0  0  0  0  0  0  0  0  0
    2.1501    0.0040    1.8767 H   0  0  0  0  0  0  0  0  0  0  0  0
    3.6832    1.0206    3.3284 H   0  0  0  0  0  0  0  0  0  0  0  0
    3.8057   -0.7579    3.2588 H   0  0  0  0  0  0  0  0  0  0  0  0
    5.7293    0.2049    4.5448 H   0  0  0  0  0  0  0  0  0  0  0  0
    4.6993   -0.7866    5.6167 H   0  0  0  0  0  0  0  0  0  0  0  0
    4.5917    0.9920    5.6760 H   0  0  0  0  0  0  0  0  0  0  0  0
   -1.3430    0.0289   -0.1362 H   0  0  0  0  0  0  0  0  0  0  0  0
  1 19  1  0  0  0  0
  1  2  1  0  0  0  0
  1 18  1  0  0  0  0
  2 22  1  0  0  0  0
  3  2  1  0  0  0  0
  4  3  1  0  0  0  0
  5  4  2  0  0  0  0
  6 23  1  0  0  0  0
  6 24  1  0  0  0  0
  6  4  1  0  0  0  0
  7  6  1  0  0  0  0
  8 25  1  0  0  0  0
  8  7  1  0  0  0  0
  9  8  2  0  0  0  0
 10  9  1  0  0  0  0
 11 12  2  0  0  0  0
 11  9  1  0  0  0  0
 12 13  1  0  0  0  0
 13 14  1  0  0  0  0
 13  7  2  0  0  0  0
 15 14  1  0  0  0  0
 15 16  1  0  0  0  0
 16 30  1  0  0  0  0
 16 31  1  0  0  0  0
 17 11  1  0  0  0  0
 20  1  1  0  0  0  0
 21  2  1  0  0  0  0
 26 12  1  0  0  0  0
 27 15  1  0  0  0  0
 28 15  1  0  0  0  0
 29 16  1  0  0  0  0
 32 17  1  0  0  0  0
M  END
