313227268.xyz
 OpenBabel08132112093D
Brc1cc(C)c(c(c1)S)Cl
 16 16  0  0  0  0  0  0  0  0999 V2000
    3.0559    0.0000    4.6164 Br  0  0  0  0  0  0  0  0  0  0  0  0
    1.3419   -0.0000    3.7848 C   0  0  0  0  0  0  0  0  0  0  0  0
    0.1955   -0.0001    4.5809 C   0  0  0  0  0  0  0  0  0  0  0  0
   -1.0718   -0.0001    3.9868 C   0  0  0  0  0  0  0  0  0  0  0  0
   -2.3127   -0.0003    4.8378 C   0  0  0  0  0  0  0  0  0  0  0  0
   -1.1518   -0.0000    2.5816 C   0  0  0  0  0  0  0  0  0  0  0  0
    0.0000    0.0000    1.7716 C   0  0  0  0  0  0  0  0  0  0  0  0
    1.2592    0.0000    2.3971 C   0  0  0  0  0  0  0  0  0  0  0  0
    0.0000    0.0000    0.0000 S   0  0  0  0  0  0  0  0  0  0  0  0
   -2.7464    0.0001    1.8482 Cl  0  0  0  0  0  0  0  0  0  0  0  0
    0.2827   -0.0002    5.6678 H   0  0  0  0  0  0  0  0  0  0  0  0
   -2.0552   -0.0005    5.9055 H   0  0  0  0  0  0  0  0  0  0  0  0
   -2.9367   -0.8833    4.6269 H   0  0  0  0  0  0  0  0  0  0  0  0
   -2.9367    0.8828    4.6272 H   0  0  0  0  0  0  0  0  0  0  0  0
    2.1658    0.0000    1.7908 H   0  0  0  0  0  0  0  0  0  0  0  0
   -1.3420   -0.0001   -0.1482 H   0  0  0  0  0  0  0  0  0  0  0  0
  2  3  2  0  0  0  0
  2  1  1  0  0  0  0
  3 11  1  0  0  0  0
  4  3  1  0  0  0  0
  4  5  1  0  0  0  0
  5 12  1  0  0  0  0
  6  4  2  0  0  0  0
  7  8  2  0  0  0  0
  7  6  1  0  0  0  0
  8  2  1  0  0  0  0
  9  7  1  0  0  0  0
 10  6  1  0  0  0  0
 13  5  1  0  0  0  0
 14  5  1  0  0  0  0
 15  8  1  0  0  0  0
 16  9  1  0  0  0  0
M  END
