313218049.xyz
 OpenBabel08132112093D
N#Cc1c(S)cc(cc1C(=O)N)Cl
 18 18  0  0  0  0  0  0  0  0999 V2000
   -3.4441    0.0049    1.3291 N   0  0  0  0  0  0  0  0  0  0  0  0
   -2.4344    0.0155    1.9064 C   0  0  0  0  0  0  0  0  0  0  0  0
   -1.1718    0.0066    2.5741 C   0  0  0  0  0  0  0  0  0  0  0  0
    0.0000   -0.0000    1.7686 C   0  0  0  0  0  0  0  0  0  0  0  0
    0.0000    0.0000    0.0000 S   0  0  0  0  0  0  0  0  0  0  0  0
    1.2576   -0.0000    2.3864 C   0  0  0  0  0  0  0  0  0  0  0  0
    1.3452    0.0163    3.7757 C   0  0  0  0  0  0  0  0  0  0  0  0
    0.2016    0.0297    4.5757 C   0  0  0  0  0  0  0  0  0  0  0  0
   -1.0632    0.0156    3.9902 C   0  0  0  0  0  0  0  0  0  0  0  0
   -2.2114    0.0404    4.9947 C   0  0  0  0  0  0  0  0  0  0  0  0
   -1.9806    0.3311    6.1565 O   0  0  0  0  0  0  0  0  0  0  0  0
   -3.4543   -0.2952    4.5690 N   0  0  0  0  0  0  0  0  0  0  0  0
    2.9136    0.0216    4.5264 Cl  0  0  0  0  0  0  0  0  0  0  0  0
   -1.3400   -0.0278   -0.1756 H   0  0  0  0  0  0  0  0  0  0  0  0
    2.1671   -0.0090    1.7845 H   0  0  0  0  0  0  0  0  0  0  0  0
    0.2661    0.0593    5.6624 H   0  0  0  0  0  0  0  0  0  0  0  0
   -3.6949   -0.5247    3.6145 H   0  0  0  0  0  0  0  0  0  0  0  0
   -4.1951   -0.2478    5.2587 H   0  0  0  0  0  0  0  0  0  0  0  0
  1  2  3  0  0  0  0
  2  3  1  0  0  0  0
  3  9  2  0  0  0  0
  4  6  2  0  0  0  0
  4  3  1  0  0  0  0
  5  4  1  0  0  0  0
  6  7  1  0  0  0  0
  7 13  1  0  0  0  0
  7  8  2  0  0  0  0
  8 16  1  0  0  0  0
  9  8  1  0  0  0  0
  9 10  1  0  0  0  0
 10 11  2  0  0  0  0
 12 10  1  0  0  0  0
 12 18  1  0  0  0  0
 14  5  1  0  0  0  0
 15  6  1  0  0  0  0
 17 12  1  0  0  0  0
M  END
