313222892.xyz
 OpenBabel08132112093D
Fc1cc(F)c(c(c1)C(=O)Cl)S
 15 15  0  0  0  0  0  0  0  0999 V2000
    0.2566    0.0928    5.9309 F   0  0  0  0  0  0  0  0  0  0  0  0
    0.1717    0.0650    4.5983 C   0  0  0  0  0  0  0  0  0  0  0  0
    1.3424    0.0292    3.8447 C   0  0  0  0  0  0  0  0  0  0  0  0
    1.2313   -0.0000    2.4633 C   0  0  0  0  0  0  0  0  0  0  0  0
    2.3698   -0.0150    1.7534 F   0  0  0  0  0  0  0  0  0  0  0  0
    0.0000    0.0000    1.7760 C   0  0  0  0  0  0  0  0  0  0  0  0
   -1.1664    0.0287    2.5814 C   0  0  0  0  0  0  0  0  0  0  0  0
   -1.0688    0.0771    3.9858 C   0  0  0  0  0  0  0  0  0  0  0  0
   -2.5784    0.0566    2.0959 C   0  0  0  0  0  0  0  0  0  0  0  0
   -3.4902    0.5305    2.6959 O   0  0  0  0  0  0  0  0  0  0  0  0
   -2.8870   -0.8035    0.5488 Cl  0  0  0  0  0  0  0  0  0  0  0  0
    0.0000    0.0000    0.0000 S   0  0  0  0  0  0  0  0  0  0  0  0
    2.3246    0.0232    4.3179 H   0  0  0  0  0  0  0  0  0  0  0  0
   -1.9764    0.1215    4.5868 H   0  0  0  0  0  0  0  0  0  0  0  0
    1.3148    0.3027   -0.0928 H   0  0  0  0  0  0  0  0  0  0  0  0
  2  1  1  0  0  0  0
  3 13  1  0  0  0  0
  3  2  2  0  0  0  0
  4  3  1  0  0  0  0
  5  4  1  0  0  0  0
  6  4  2  0  0  0  0
  6  7  1  0  0  0  0
  7  8  2  0  0  0  0
  8 14  1  0  0  0  0
  8  2  1  0  0  0  0
  9  7  1  0  0  0  0
  9 10  2  0  0  0  0
 11  9  1  0  0  0  0
 12  6  1  0  0  0  0
 15 12  1  0  0  0  0
M  END
