313220104.xyz
 OpenBabel08132112093D
BrCC(=O)c1cc(Cl)cc(c1C#N)S
 19 19  0  0  0  0  0  0  0  0999 V2000
   -1.6194   -1.8899    6.8820 Br  0  0  0  0  0  0  0  0  0  0  0  0
   -2.1602   -0.0779    6.3457 C   0  0  0  0  0  0  0  0  0  0  0  0
   -2.2857    0.0222    4.8315 C   0  0  0  0  0  0  0  0  0  0  0  0
   -3.3848    0.1370    4.3372 O   0  0  0  0  0  0  0  0  0  0  0  0
   -1.0452   -0.0051    3.9863 C   0  0  0  0  0  0  0  0  0  0  0  0
    0.2200   -0.0089    4.5759 C   0  0  0  0  0  0  0  0  0  0  0  0
    1.3610   -0.0043    3.7694 C   0  0  0  0  0  0  0  0  0  0  0  0
    2.9315   -0.0086    4.5172 Cl  0  0  0  0  0  0  0  0  0  0  0  0
    1.2622   -0.0000    2.3830 C   0  0  0  0  0  0  0  0  0  0  0  0
   -0.0000   -0.0000    1.7650 C   0  0  0  0  0  0  0  0  0  0  0  0
   -1.1683    0.0008    2.5726 C   0  0  0  0  0  0  0  0  0  0  0  0
   -2.4342    0.0009    1.9013 C   0  0  0  0  0  0  0  0  0  0  0  0
   -3.3451   -0.0048    1.1792 N   0  0  0  0  0  0  0  0  0  0  0  0
    0.0000    0.0000    0.0000 S   0  0  0  0  0  0  0  0  0  0  0  0
   -1.4209    0.6146    6.7655 H   0  0  0  0  0  0  0  0  0  0  0  0
   -3.1480    0.1017    6.7807 H   0  0  0  0  0  0  0  0  0  0  0  0
    0.3419   -0.0361    5.6562 H   0  0  0  0  0  0  0  0  0  0  0  0
    2.1689    0.0007    1.7768 H   0  0  0  0  0  0  0  0  0  0  0  0
   -1.3431   -0.0091   -0.1646 H   0  0  0  0  0  0  0  0  0  0  0  0
  2 15  1  0  0  0  0
  2 16  1  0  0  0  0
  2  1  1  0  0  0  0
  3  2  1  0  0  0  0
  4  3  2  0  0  0  0
  5  6  1  0  0  0  0
  5  3  1  0  0  0  0
  6 17  1  0  0  0  0
  7  8  1  0  0  0  0
  7  6  2  0  0  0  0
  9  7  1  0  0  0  0
 10  9  2  0  0  0  0
 10 11  1  0  0  0  0
 11  5  2  0  0  0  0
 12 11  1  0  0  0  0
 13 12  3  0  0  0  0
 14 10  1  0  0  0  0
 18  9  1  0  0  0  0
 19 14  1  0  0  0  0
M  END
