313215356.xyz
 OpenBabel08132112093D
N#Cc1cc(S)c(c(c1)Cl)OC
 18 18  0  0  0  0  0  0  0  0999 V2000
   -3.5181   -0.0834    5.1110 N   0  0  0  0  0  0  0  0  0  0  0  0
   -2.5017   -0.0628    4.5510 C   0  0  0  0  0  0  0  0  0  0  0  0
   -1.2447   -0.0397    3.8584 C   0  0  0  0  0  0  0  0  0  0  0  0
   -1.2206   -0.0152    2.4553 C   0  0  0  0  0  0  0  0  0  0  0  0
   -0.0000    0.0000    1.7726 C   0  0  0  0  0  0  0  0  0  0  0  0
    0.0000    0.0000    0.0000 S   0  0  0  0  0  0  0  0  0  0  0  0
    1.2121    0.0000    2.4981 C   0  0  0  0  0  0  0  0  0  0  0  0
    1.1649   -0.0063    3.9031 C   0  0  0  0  0  0  0  0  0  0  0  0
   -0.0462   -0.0280    4.5905 C   0  0  0  0  0  0  0  0  0  0  0  0
    2.6580    0.0264    4.8006 Cl  0  0  0  0  0  0  0  0  0  0  0  0
    2.3957    0.0424    1.8319 O   0  0  0  0  0  0  0  0  0  0  0  0
    3.0556   -1.2146    1.6609 C   0  0  0  0  0  0  0  0  0  0  0  0
   -2.1584   -0.0057    1.8984 H   0  0  0  0  0  0  0  0  0  0  0  0
    1.2970    0.3664   -0.1097 H   0  0  0  0  0  0  0  0  0  0  0  0
   -0.0554   -0.0320    5.6797 H   0  0  0  0  0  0  0  0  0  0  0  0
    2.4253   -1.9094    1.0810 H   0  0  0  0  0  0  0  0  0  0  0  0
    3.3054   -1.6630    2.6349 H   0  0  0  0  0  0  0  0  0  0  0  0
    3.9814   -1.0089    1.1083 H   0  0  0  0  0  0  0  0  0  0  0  0
  2  1  3  0  0  0  0
  3  2  1  0  0  0  0
  3  9  2  0  0  0  0
  4  3  1  0  0  0  0
  5  4  2  0  0  0  0
  5  7  1  0  0  0  0
  6  5  1  0  0  0  0
  7  8  2  0  0  0  0
  8  9  1  0  0  0  0
  8 10  1  0  0  0  0
  9 15  1  0  0  0  0
 11  7  1  0  0  0  0
 12 11  1  0  0  0  0
 12 17  1  0  0  0  0
 13  4  1  0  0  0  0
 14  6  1  0  0  0  0
 16 12  1  0  0  0  0
 18 12  1  0  0  0  0
M  END
