313260970.xyz
 OpenBabel08132112093D
ClCc1c(OC)ccc(c1Cl)S
 20 20  0  0  0  0  0  0  0  0999 V2000
   -2.8551   -1.6370    5.1953 Cl  0  0  0  0  0  0  0  0  0  0  0  0
   -2.2907    0.0643    4.8589 C   0  0  0  0  0  0  0  0  0  0  0  0
   -1.0731    0.0704    3.9915 C   0  0  0  0  0  0  0  0  0  0  0  0
    0.2028    0.0643    4.5984 C   0  0  0  0  0  0  0  0  0  0  0  0
    0.2144    0.0873    5.9532 O   0  0  0  0  0  0  0  0  0  0  0  0
    1.4487    0.0636    6.6342 C   0  0  0  0  0  0  0  0  0  0  0  0
    1.3567    0.0392    3.8065 C   0  0  0  0  0  0  0  0  0  0  0  0
    1.2450    0.0000    2.4187 C   0  0  0  0  0  0  0  0  0  0  0  0
   -0.0000    0.0000    1.7764 C   0  0  0  0  0  0  0  0  0  0  0  0
   -1.1494    0.0319    2.5905 C   0  0  0  0  0  0  0  0  0  0  0  0
   -2.7361    0.0109    1.8454 Cl  0  0  0  0  0  0  0  0  0  0  0  0
    0.0000    0.0000    0.0000 S   0  0  0  0  0  0  0  0  0  0  0  0
   -2.0754    0.5112    5.8336 H   0  0  0  0  0  0  0  0  0  0  0  0
   -3.1325    0.5751    4.3814 H   0  0  0  0  0  0  0  0  0  0  0  0
    2.0230   -0.8507    6.4029 H   0  0  0  0  0  0  0  0  0  0  0  0
    2.0669    0.9460    6.3909 H   0  0  0  0  0  0  0  0  0  0  0  0
    1.2129    0.0759    7.7061 H   0  0  0  0  0  0  0  0  0  0  0  0
    2.3472    0.0351    4.2587 H   0  0  0  0  0  0  0  0  0  0  0  0
    2.1522   -0.0372    1.8114 H   0  0  0  0  0  0  0  0  0  0  0  0
   -1.2946   -0.3507   -0.1539 H   0  0  0  0  0  0  0  0  0  0  0  0
  2  1  1  0  0  0  0
  2 13  1  0  0  0  0
  3  4  1  0  0  0  0
  3  2  1  0  0  0  0
  4  5  1  0  0  0  0
  5  6  1  0  0  0  0
  6 17  1  0  0  0  0
  7 18  1  0  0  0  0
  7  4  2  0  0  0  0
  8  7  1  0  0  0  0
  9  8  2  0  0  0  0
  9 10  1  0  0  0  0
 10  3  2  0  0  0  0
 11 10  1  0  0  0  0
 12  9  1  0  0  0  0
 14  2  1  0  0  0  0
 15  6  1  0  0  0  0
 16  6  1  0  0  0  0
 19  8  1  0  0  0  0
 20 12  1  0  0  0  0
M  END
