313221400.xyz
 OpenBabel08132112093D
N#Cc1cc(I)c(cc1S)Br
 14 14  0  0  0  0  0  0  0  0999 V2000
   -3.5048   -0.0023    1.4341 N   0  0  0  0  0  0  0  0  0  0  0  0
   -2.4665   -0.0015    1.9553 C   0  0  0  0  0  0  0  0  0  0  0  0
   -1.1713   -0.0010    2.5632 C   0  0  0  0  0  0  0  0  0  0  0  0
   -1.0678   -0.0013    3.9647 C   0  0  0  0  0  0  0  0  0  0  0  0
    0.1736   -0.0011    4.5984 C   0  0  0  0  0  0  0  0  0  0  0  0
    0.2168   -0.0016    6.7125 I   0  0  0  0  0  0  0  0  0  0  0  0
    1.3370   -0.0007    3.8054 C   0  0  0  0  0  0  0  0  0  0  0  0
    1.2433   -0.0000    2.4120 C   0  0  0  0  0  0  0  0  0  0  0  0
   -0.0000    0.0000    1.7653 C   0  0  0  0  0  0  0  0  0  0  0  0
    0.0000    0.0000    0.0000 S   0  0  0  0  0  0  0  0  0  0  0  0
    3.0727   -0.0005    4.5640 Br  0  0  0  0  0  0  0  0  0  0  0  0
   -1.9829   -0.0019    4.5573 H   0  0  0  0  0  0  0  0  0  0  0  0
    2.1601    0.0006    1.8208 H   0  0  0  0  0  0  0  0  0  0  0  0
   -1.3432    0.0006   -0.1607 H   0  0  0  0  0  0  0  0  0  0  0  0
  1  2  3  0  0  0  0
  2  3  1  0  0  0  0
  3  4  2  0  0  0  0
  4 12  1  0  0  0  0
  4  5  1  0  0  0  0
  5  6  1  0  0  0  0
  7 11  1  0  0  0  0
  7  5  2  0  0  0  0
  8  7  1  0  0  0  0
  9  8  2  0  0  0  0
  9  3  1  0  0  0  0
 10  9  1  0  0  0  0
 13  8  1  0  0  0  0
 14 10  1  0  0  0  0
M  END
