313254821.xyz
 OpenBabel08132112093D
CC(=O)c1cc(S)c(cc1OC(F)(F)F)Cl
 22 22  0  0  0  0  0  0  0  0999 V2000
   -3.9431    0.3269    3.5642 C   0  0  0  0  0  0  0  0  0  0  0  0
   -2.7583   -0.0427    4.4394 C   0  0  0  0  0  0  0  0  0  0  0  0
   -2.9187   -0.3532    5.5994 O   0  0  0  0  0  0  0  0  0  0  0  0
   -1.3884   -0.0150    3.8083 C   0  0  0  0  0  0  0  0  0  0  0  0
   -1.2463    0.0043    2.4150 C   0  0  0  0  0  0  0  0  0  0  0  0
   -0.0000   -0.0000    1.7700 C   0  0  0  0  0  0  0  0  0  0  0  0
    0.0000    0.0000    0.0000 S   0  0  0  0  0  0  0  0  0  0  0  0
    1.1503    0.0000    2.5817 C   0  0  0  0  0  0  0  0  0  0  0  0
    1.0431    0.0049    3.9731 C   0  0  0  0  0  0  0  0  0  0  0  0
   -0.2088   -0.0130    4.5795 C   0  0  0  0  0  0  0  0  0  0  0  0
   -0.2696    0.0623    5.9591 O   0  0  0  0  0  0  0  0  0  0  0  0
   -0.0453   -1.0612    6.6830 C   0  0  0  0  0  0  0  0  0  0  0  0
   -0.6872   -2.1245    6.1988 F   0  0  0  0  0  0  0  0  0  0  0  0
    1.2684   -1.3744    6.6999 F   0  0  0  0  0  0  0  0  0  0  0  0
   -0.4310   -0.8343    7.9259 F   0  0  0  0  0  0  0  0  0  0  0  0
    2.7504    0.0084    1.8859 Cl  0  0  0  0  0  0  0  0  0  0  0  0
   -3.7860    1.2871    3.0492 H   0  0  0  0  0  0  0  0  0  0  0  0
   -4.1112   -0.4411    2.7916 H   0  0  0  0  0  0  0  0  0  0  0  0
   -4.8343    0.3842    4.2010 H   0  0  0  0  0  0  0  0  0  0  0  0
   -2.1395    0.0093    1.7898 H   0  0  0  0  0  0  0  0  0  0  0  0
    1.3426    0.0124   -0.1462 H   0  0  0  0  0  0  0  0  0  0  0  0
    1.9389    0.0243    4.5922 H   0  0  0  0  0  0  0  0  0  0  0  0
  1 19  1  0  0  0  0
  1  2  1  0  0  0  0
  2  3  2  0  0  0  0
  4  2  1  0  0  0  0
  4 10  2  0  0  0  0
  5  4  1  0  0  0  0
  6  5  2  0  0  0  0
  6  8  1  0  0  0  0
  7  6  1  0  0  0  0
  8  9  2  0  0  0  0
  9 10  1  0  0  0  0
  9 22  1  0  0  0  0
 10 11  1  0  0  0  0
 11 12  1  0  0  0  0
 12 14  1  0  0  0  0
 12 15  1  0  0  0  0
 13 12  1  0  0  0  0
 16  8  1  0  0  0  0
 17  1  1  0  0  0  0
 18  1  1  0  0  0  0
 20  5  1  0  0  0  0
 21  7  1  0  0  0  0
M  END
