313259683.xyz
 OpenBabel08132112093D
COc1c(S)ccc(c1Cl)C(=O)N
 21 21  0  0  0  0  0  0  0  0999 V2000
   -3.0461   -1.2278    1.6624 C   0  0  0  0  0  0  0  0  0  0  0  0
   -2.3941    0.0323    1.8249 O   0  0  0  0  0  0  0  0  0  0  0  0
   -1.2089   -0.0072    2.4988 C   0  0  0  0  0  0  0  0  0  0  0  0
    0.0000   -0.0000    1.7718 C   0  0  0  0  0  0  0  0  0  0  0  0
    0.0000    0.0000    0.0000 S   0  0  0  0  0  0  0  0  0  0  0  0
    1.2192   -0.0000    2.4619 C   0  0  0  0  0  0  0  0  0  0  0  0
    1.2341   -0.0152    3.8532 C   0  0  0  0  0  0  0  0  0  0  0  0
    0.0467   -0.0229    4.6000 C   0  0  0  0  0  0  0  0  0  0  0  0
   -1.1734   -0.0140    3.9036 C   0  0  0  0  0  0  0  0  0  0  0  0
   -2.6943    0.0542    4.7502 Cl  0  0  0  0  0  0  0  0  0  0  0  0
    0.1103   -0.1047    6.1061 C   0  0  0  0  0  0  0  0  0  0  0  0
   -0.5380   -0.8996    6.7562 O   0  0  0  0  0  0  0  0  0  0  0  0
    1.0138    0.7555    6.6714 N   0  0  0  0  0  0  0  0  0  0  0  0
   -2.4119   -1.9248    1.0885 H   0  0  0  0  0  0  0  0  0  0  0  0
   -3.2950   -1.6721    2.6386 H   0  0  0  0  0  0  0  0  0  0  0  0
   -3.9729   -1.0326    1.1068 H   0  0  0  0  0  0  0  0  0  0  0  0
   -1.3073    0.3283   -0.1097 H   0  0  0  0  0  0  0  0  0  0  0  0
    2.1570    0.0096    1.9027 H   0  0  0  0  0  0  0  0  0  0  0  0
    2.1892   -0.0353    4.3819 H   0  0  0  0  0  0  0  0  0  0  0  0
    1.3806    1.5450    6.1566 H   0  0  0  0  0  0  0  0  0  0  0  0
    1.0739    0.7658    7.6834 H   0  0  0  0  0  0  0  0  0  0  0  0
  1  2  1  0  0  0  0
  1 15  1  0  0  0  0
  2  3  1  0  0  0  0
  3  9  2  0  0  0  0
  4  6  2  0  0  0  0
  4  3  1  0  0  0  0
  5  4  1  0  0  0  0
  6  7  1  0  0  0  0
  7 19  1  0  0  0  0
  7  8  2  0  0  0  0
  8 11  1  0  0  0  0
  9  8  1  0  0  0  0
  9 10  1  0  0  0  0
 11 13  1  0  0  0  0
 11 12  2  0  0  0  0
 13 21  1  0  0  0  0
 14  1  1  0  0  0  0
 16  1  1  0  0  0  0
 17  5  1  0  0  0  0
 18  6  1  0  0  0  0
 20 13  1  0  0  0  0
M  END
