313212713.xyz
 OpenBabel08132112093D
BrCC(=O)c1cc(OC(F)F)cc(c1S)Cl
 22 22  0  0  0  0  0  0  0  0999 V2000
   -2.2724   -2.7787    1.3780 Br  0  0  0  0  0  0  0  0  0  0  0  0
   -2.9605   -1.0127    0.8785 C   0  0  0  0  0  0  0  0  0  0  0  0
   -2.5986    0.0571    1.9021 C   0  0  0  0  0  0  0  0  0  0  0  0
   -3.4697    0.7961    2.3039 O   0  0  0  0  0  0  0  0  0  0  0  0
   -1.2113    0.1257    2.4983 C   0  0  0  0  0  0  0  0  0  0  0  0
   -1.1932    0.3225    3.8832 C   0  0  0  0  0  0  0  0  0  0  0  0
    0.0088    0.3105    4.5863 C   0  0  0  0  0  0  0  0  0  0  0  0
   -0.0711    0.4600    5.9494 O   0  0  0  0  0  0  0  0  0  0  0  0
    0.9738    1.0409    6.6181 C   0  0  0  0  0  0  0  0  0  0  0  0
    1.9770    0.1462    6.8094 F   0  0  0  0  0  0  0  0  0  0  0  0
    0.5182    1.4048    7.8176 F   0  0  0  0  0  0  0  0  0  0  0  0
    1.2154    0.1186    3.9091 C   0  0  0  0  0  0  0  0  0  0  0  0
    1.1987   -0.0000    2.5181 C   0  0  0  0  0  0  0  0  0  0  0  0
   -0.0000   -0.0000    1.7792 C   0  0  0  0  0  0  0  0  0  0  0  0
    0.0000    0.0000    0.0000 S   0  0  0  0  0  0  0  0  0  0  0  0
    2.7382   -0.1758    1.7140 Cl  0  0  0  0  0  0  0  0  0  0  0  0
   -2.5443   -0.7906   -0.1096 H   0  0  0  0  0  0  0  0  0  0  0  0
   -4.0531   -1.0762    0.8377 H   0  0  0  0  0  0  0  0  0  0  0  0
   -2.1307    0.4608    4.4214 H   0  0  0  0  0  0  0  0  0  0  0  0
    1.3864    1.9141    6.0797 H   0  0  0  0  0  0  0  0  0  0  0  0
    2.1629    0.0539    4.4407 H   0  0  0  0  0  0  0  0  0  0  0  0
    1.0159   -0.8777   -0.1535 H   0  0  0  0  0  0  0  0  0  0  0  0
  2  1  1  0  0  0  0
  2  3  1  0  0  0  0
  3  4  2  0  0  0  0
  3  5  1  0  0  0  0
  5  6  1  0  0  0  0
  6 19  1  0  0  0  0
  6  7  2  0  0  0  0
  7  8  1  0  0  0  0
  8  9  1  0  0  0  0
  9 10  1  0  0  0  0
  9 11  1  0  0  0  0
 12 21  1  0  0  0  0
 12  7  1  0  0  0  0
 13 12  2  0  0  0  0
 14  5  2  0  0  0  0
 14 13  1  0  0  0  0
 15 14  1  0  0  0  0
 16 13  1  0  0  0  0
 17  2  1  0  0  0  0
 18  2  1  0  0  0  0
 20  9  1  0  0  0  0
 22 15  1  0  0  0  0
M  END
