313209868.xyz
 OpenBabel08132112093D
CCOc1ccc(c(c1S)Cl)C#N
 21 21  0  0  0  0  0  0  0  0999 V2000
    4.6921   -0.0011    1.4092 C   0  0  0  0  0  0  0  0  0  0  0  0
    3.6112   -0.0005    2.4693 C   0  0  0  0  0  0  0  0  0  0  0  0
    2.3497   -0.0001    1.8073 O   0  0  0  0  0  0  0  0  0  0  0  0
    1.2045   -0.0000    2.5223 C   0  0  0  0  0  0  0  0  0  0  0  0
    1.1612    0.0001    3.9221 C   0  0  0  0  0  0  0  0  0  0  0  0
   -0.0614    0.0001    4.5886 C   0  0  0  0  0  0  0  0  0  0  0  0
   -1.2659    0.0001    3.8718 C   0  0  0  0  0  0  0  0  0  0  0  0
   -1.2169    0.0000    2.4604 C   0  0  0  0  0  0  0  0  0  0  0  0
    0.0000   -0.0000    1.7699 C   0  0  0  0  0  0  0  0  0  0  0  0
    0.0000    0.0000    0.0000 S   0  0  0  0  0  0  0  0  0  0  0  0
   -2.6989   -0.0001    1.5547 Cl  0  0  0  0  0  0  0  0  0  0  0  0
   -2.5151    0.0001    4.5706 C   0  0  0  0  0  0  0  0  0  0  0  0
   -3.5058    0.0002    5.1757 N   0  0  0  0  0  0  0  0  0  0  0  0
    4.6113    0.8919    0.7712 H   0  0  0  0  0  0  0  0  0  0  0  0
    5.6853   -0.0015    1.8830 H   0  0  0  0  0  0  0  0  0  0  0  0
    4.6106   -0.8941    0.7714 H   0  0  0  0  0  0  0  0  0  0  0  0
    3.6874   -0.8931    3.1159 H   0  0  0  0  0  0  0  0  0  0  0  0
    3.6882    0.8922    3.1157 H   0  0  0  0  0  0  0  0  0  0  0  0
    2.0826    0.0000    4.5018 H   0  0  0  0  0  0  0  0  0  0  0  0
   -0.0917    0.0002    5.6787 H   0  0  0  0  0  0  0  0  0  0  0  0
    1.3472   -0.0006   -0.0993 H   0  0  0  0  0  0  0  0  0  0  0  0
  1 15  1  0  0  0  0
  1  2  1  0  0  0  0
  2 18  1  0  0  0  0
  2 17  1  0  0  0  0
  3  2  1  0  0  0  0
  3  4  1  0  0  0  0
  4  5  2  0  0  0  0
  5 19  1  0  0  0  0
  5  6  1  0  0  0  0
  6 20  1  0  0  0  0
  7 12  1  0  0  0  0
  7  6  2  0  0  0  0
  8  7  1  0  0  0  0
  9  8  2  0  0  0  0
  9  4  1  0  0  0  0
 10  9  1  0  0  0  0
 11  8  1  0  0  0  0
 12 13  3  0  0  0  0
 14  1  1  0  0  0  0
 16  1  1  0  0  0  0
 21 10  1  0  0  0  0
M  END
