313226438.xyz
 OpenBabel08132112093D
Clc1cc([N+](=O)[O-])c(cc1OC(F)(F)F)S
 19 19  0  0  0  0  0  0  0  0999 V2000
   -0.6189   -0.0126    6.3009 Cl  0  0  0  0  0  0  0  0  0  0  0  0
   -0.3760   -0.0115    4.5868 C   0  0  0  0  0  0  0  0  0  0  0  0
    0.8991   -0.0088    4.0478 C   0  0  0  0  0  0  0  0  0  0  0  0
    1.0954    0.0000    2.6582 C   0  0  0  0  0  0  0  0  0  0  0  0
    2.5090    0.0031    2.2362 N   0  0  0  0  0  0  0  0  0  0  0  0
    3.3582   -0.0604    3.1059 O   0  0  0  0  0  0  0  0  0  0  0  0
    2.7773    0.0722    1.0394 O   0  0  0  0  0  0  0  0  0  0  0  0
   -0.0000    0.0000    1.7599 C   0  0  0  0  0  0  0  0  0  0  0  0
   -1.2876   -0.0133    2.3389 C   0  0  0  0  0  0  0  0  0  0  0  0
   -1.4783   -0.0157    3.7104 C   0  0  0  0  0  0  0  0  0  0  0  0
   -2.7515   -0.0770    4.2374 O   0  0  0  0  0  0  0  0  0  0  0  0
   -3.5106    1.0521    4.2392 C   0  0  0  0  0  0  0  0  0  0  0  0
   -4.6028    0.7999    4.9371 F   0  0  0  0  0  0  0  0  0  0  0  0
   -3.8667    1.4135    2.9966 F   0  0  0  0  0  0  0  0  0  0  0  0
   -2.8631    2.0856    4.7826 F   0  0  0  0  0  0  0  0  0  0  0  0
    0.0000    0.0000    0.0000 S   0  0  0  0  0  0  0  0  0  0  0  0
    1.7727   -0.0097    4.6956 H   0  0  0  0  0  0  0  0  0  0  0  0
   -2.1661   -0.0252    1.6931 H   0  0  0  0  0  0  0  0  0  0  0  0
    1.3463    0.0400   -0.1265 H   0  0  0  0  0  0  0  0  0  0  0  0
  2  1  1  0  0  0  0
  3  2  1  0  0  0  0
  3 17  1  0  0  0  0
  4  3  2  0  0  0  0
  5  4  1  0  0  0  0
  5  6  2  0  0  0  0
  7  5  2  0  0  0  0
  8  9  2  0  0  0  0
  8  4  1  0  0  0  0
  9 10  1  0  0  0  0
 10 11  1  0  0  0  0
 10  2  2  0  0  0  0
 11 12  1  0  0  0  0
 12 15  1  0  0  0  0
 12 13  1  0  0  0  0
 14 12  1  0  0  0  0
 16  8  1  0  0  0  0
 18  9  1  0  0  0  0
 19 16  1  0  0  0  0
M  END
