313236605.xyz
 OpenBabel08132112093D
CCOc1ccc(c(c1Cl)S)OC(F)(F)F
 24 24  0  0  0  0  0  0  0  0999 V2000
   -3.6370   -0.0371    6.5654 C   0  0  0  0  0  0  0  0  0  0  0  0
   -2.1989   -0.0376    6.0906 C   0  0  0  0  0  0  0  0  0  0  0  0
   -2.2128   -0.0285    4.6693 O   0  0  0  0  0  0  0  0  0  0  0  0
   -1.0512   -0.0215    3.9892 C   0  0  0  0  0  0  0  0  0  0  0  0
    0.2156   -0.0284    4.5871 C   0  0  0  0  0  0  0  0  0  0  0  0
    1.3640   -0.0243    3.7925 C   0  0  0  0  0  0  0  0  0  0  0  0
    1.2531    0.0000    2.4111 C   0  0  0  0  0  0  0  0  0  0  0  0
   -0.0000    0.0000    1.7676 C   0  0  0  0  0  0  0  0  0  0  0  0
   -1.1467   -0.0137    2.5781 C   0  0  0  0  0  0  0  0  0  0  0  0
   -2.7458   -0.0197    1.8808 Cl  0  0  0  0  0  0  0  0  0  0  0  0
    0.0000    0.0000    0.0000 S   0  0  0  0  0  0  0  0  0  0  0  0
    2.3866   -0.0390    1.5970 O   0  0  0  0  0  0  0  0  0  0  0  0
    3.1612    1.0686    1.5193 C   0  0  0  0  0  0  0  0  0  0  0  0
    3.8047    1.3175    2.6746 F   0  0  0  0  0  0  0  0  0  0  0  0
    4.0676    0.8644    0.5748 F   0  0  0  0  0  0  0  0  0  0  0  0
    2.4557    2.1639    1.2204 F   0  0  0  0  0  0  0  0  0  0  0  0
   -4.1633    0.8583    6.2023 H   0  0  0  0  0  0  0  0  0  0  0  0
   -3.6736   -0.0444    7.6654 H   0  0  0  0  0  0  0  0  0  0  0  0
   -4.1679   -0.9248    6.1904 H   0  0  0  0  0  0  0  0  0  0  0  0
   -1.6618   -0.9336    6.4529 H   0  0  0  0  0  0  0  0  0  0  0  0
   -1.6572    0.8508    6.4642 H   0  0  0  0  0  0  0  0  0  0  0  0
    0.3167   -0.0434    5.6706 H   0  0  0  0  0  0  0  0  0  0  0  0
    2.3541   -0.0396    4.2473 H   0  0  0  0  0  0  0  0  0  0  0  0
   -1.3452    0.0623   -0.1134 H   0  0  0  0  0  0  0  0  0  0  0  0
  1 18  1  0  0  0  0
  2 20  1  0  0  0  0
  2 21  1  0  0  0  0
  2  1  1  0  0  0  0
  3  2  1  0  0  0  0
  4  5  1  0  0  0  0
  4  3  1  0  0  0  0
  5 22  1  0  0  0  0
  6 23  1  0  0  0  0
  6  5  2  0  0  0  0
  7  6  1  0  0  0  0
  8  7  2  0  0  0  0
  8  9  1  0  0  0  0
  9  4  2  0  0  0  0
 10  9  1  0  0  0  0
 11  8  1  0  0  0  0
 12  7  1  0  0  0  0
 13 12  1  0  0  0  0
 13 14  1  0  0  0  0
 15 13  1  0  0  0  0
 16 13  1  0  0  0  0
 17  1  1  0  0  0  0
 19  1  1  0  0  0  0
 24 11  1  0  0  0  0
M  END
