313362196.xyz
 OpenBabel08132112103D
COC(=O)c1cc(Cl)c(cc1Br)S
 19 19  0  0  0  0  0  0  0  0999 V2000
    1.2419   -0.0936    8.1581 C   0  0  0  0  0  0  0  0  0  0  0  0
    1.2821   -0.0865    6.7324 O   0  0  0  0  0  0  0  0  0  0  0  0
    0.1060   -0.0091    6.1061 C   0  0  0  0  0  0  0  0  0  0  0  0
   -0.9517    0.0447    6.6937 O   0  0  0  0  0  0  0  0  0  0  0  0
    0.2039   -0.0043    4.6100 C   0  0  0  0  0  0  0  0  0  0  0  0
   -1.0402    0.0004    3.9568 C   0  0  0  0  0  0  0  0  0  0  0  0
   -1.1543    0.0011    2.5742 C   0  0  0  0  0  0  0  0  0  0  0  0
   -2.7560    0.0040    1.8712 Cl  0  0  0  0  0  0  0  0  0  0  0  0
   -0.0000    0.0000    1.7641 C   0  0  0  0  0  0  0  0  0  0  0  0
    1.2466    0.0000    2.4093 C   0  0  0  0  0  0  0  0  0  0  0  0
    1.3610   -0.0023    3.8005 C   0  0  0  0  0  0  0  0  0  0  0  0
    3.1486    0.0105    4.4596 Br  0  0  0  0  0  0  0  0  0  0  0  0
    0.0000    0.0000    0.0000 S   0  0  0  0  0  0  0  0  0  0  0  0
    0.6694   -0.9579    8.5265 H   0  0  0  0  0  0  0  0  0  0  0  0
    2.2857   -0.1546    8.4885 H   0  0  0  0  0  0  0  0  0  0  0  0
    0.7696    0.8243    8.5385 H   0  0  0  0  0  0  0  0  0  0  0  0
   -1.9344    0.0034    4.5800 H   0  0  0  0  0  0  0  0  0  0  0  0
    2.1552    0.0031    1.8059 H   0  0  0  0  0  0  0  0  0  0  0  0
   -1.3442    0.0044   -0.1394 H   0  0  0  0  0  0  0  0  0  0  0  0
  1 15  1  0  0  0  0
  1 14  1  0  0  0  0
  1 16  1  0  0  0  0
  2  1  1  0  0  0  0
  3  4  2  0  0  0  0
  3  2  1  0  0  0  0
  5  3  1  0  0  0  0
  6 17  1  0  0  0  0
  6  5  1  0  0  0  0
  7  6  2  0  0  0  0
  8  7  1  0  0  0  0
  9 10  2  0  0  0  0
  9  7  1  0  0  0  0
 10 11  1  0  0  0  0
 11 12  1  0  0  0  0
 11  5  2  0  0  0  0
 13  9  1  0  0  0  0
 18 10  1  0  0  0  0
 19 13  1  0  0  0  0
M  END
