313341697.xyz
 OpenBabel08132112103D
Sc1cc(C(=O)N)c(c(c1)C(F)(F)F)I
 20 20  0  0  0  0  0  0  0  0999 V2000
    0.0000    0.0000    0.0000 S   0  0  0  0  0  0  0  0  0  0  0  0
    0.0000   -0.0000    1.7721 C   0  0  0  0  0  0  0  0  0  0  0  0
    1.1626    0.0000    2.5420 C   0  0  0  0  0  0  0  0  0  0  0  0
    1.1147   -0.0164    3.9432 C   0  0  0  0  0  0  0  0  0  0  0  0
    2.4922   -0.0279    4.5891 C   0  0  0  0  0  0  0  0  0  0  0  0
    3.3720    0.6990    4.1657 O   0  0  0  0  0  0  0  0  0  0  0  0
    2.7006   -0.9570    5.5582 N   0  0  0  0  0  0  0  0  0  0  0  0
   -0.1310    0.0218    4.5937 C   0  0  0  0  0  0  0  0  0  0  0  0
   -1.3138    0.0241    3.8226 C   0  0  0  0  0  0  0  0  0  0  0  0
   -1.2377    0.0009    2.4295 C   0  0  0  0  0  0  0  0  0  0  0  0
   -2.7043    0.0527    4.4372 C   0  0  0  0  0  0  0  0  0  0  0  0
   -2.9040   -0.9861    5.2633 F   0  0  0  0  0  0  0  0  0  0  0  0
   -3.6599   -0.0114    3.4940 F   0  0  0  0  0  0  0  0  0  0  0  0
   -2.9213    1.1781    5.1346 F   0  0  0  0  0  0  0  0  0  0  0  0
   -0.2295    0.2179    6.7240 I   0  0  0  0  0  0  0  0  0  0  0  0
    1.3421    0.0394   -0.1524 H   0  0  0  0  0  0  0  0  0  0  0  0
    2.1491    0.0224    2.0760 H   0  0  0  0  0  0  0  0  0  0  0  0
    3.5903   -0.9303    6.0439 H   0  0  0  0  0  0  0  0  0  0  0  0
    1.9395   -1.4773    5.9743 H   0  0  0  0  0  0  0  0  0  0  0  0
   -2.1619   -0.0034    1.8523 H   0  0  0  0  0  0  0  0  0  0  0  0
  1  2  1  0  0  0  0
  2 10  2  0  0  0  0
  2  3  1  0  0  0  0
  3  4  2  0  0  0  0
  4  5  1  0  0  0  0
  4  8  1  0  0  0  0
  5  7  1  0  0  0  0
  6  5  2  0  0  0  0
  7 19  1  0  0  0  0
  7 18  1  0  0  0  0
  8 15  1  0  0  0  0
  9 11  1  0  0  0  0
  9  8  2  0  0  0  0
 10  9  1  0  0  0  0
 11 14  1  0  0  0  0
 11 12  1  0  0  0  0
 13 11  1  0  0  0  0
 16  1  1  0  0  0  0
 17  3  1  0  0  0  0
 20 10  1  0  0  0  0
M  END
