313363067.xyz
 OpenBabel08132112103D
COC(=O)c1cc(F)c(cc1I)S
 19 19  0  0  0  0  0  0  0  0999 V2000
    1.3877    0.0026    7.9829 C   0  0  0  0  0  0  0  0  0  0  0  0
    1.2415    0.0023    6.5649 O   0  0  0  0  0  0  0  0  0  0  0  0
   -0.0275    0.0008    6.1044 C   0  0  0  0  0  0  0  0  0  0  0  0
   -0.9824    0.0001    6.8421 O   0  0  0  0  0  0  0  0  0  0  0  0
   -0.0695    0.0004    4.6102 C   0  0  0  0  0  0  0  0  0  0  0  0
    1.1506    0.0003    3.9063 C   0  0  0  0  0  0  0  0  0  0  0  0
    1.1790   -0.0000    2.5257 C   0  0  0  0  0  0  0  0  0  0  0  0
    2.3656   -0.0000    1.8938 F   0  0  0  0  0  0  0  0  0  0  0  0
   -0.0000   -0.0000    1.7659 C   0  0  0  0  0  0  0  0  0  0  0  0
   -1.2180    0.0000    2.4596 C   0  0  0  0  0  0  0  0  0  0  0  0
   -1.2633    0.0001    3.8573 C   0  0  0  0  0  0  0  0  0  0  0  0
   -3.2210   -0.0002    4.6892 I   0  0  0  0  0  0  0  0  0  0  0  0
    0.0000    0.0000    0.0000 S   0  0  0  0  0  0  0  0  0  0  0  0
    0.9179    0.8948    8.4234 H   0  0  0  0  0  0  0  0  0  0  0  0
    2.4668    0.0023    8.1781 H   0  0  0  0  0  0  0  0  0  0  0  0
    0.9172   -0.8891    8.4239 H   0  0  0  0  0  0  0  0  0  0  0  0
    2.0911    0.0005    4.4542 H   0  0  0  0  0  0  0  0  0  0  0  0
   -2.1493   -0.0001    1.8916 H   0  0  0  0  0  0  0  0  0  0  0  0
    1.3439   -0.0009   -0.1353 H   0  0  0  0  0  0  0  0  0  0  0  0
  1 15  1  0  0  0  0
  1 14  1  0  0  0  0
  1 16  1  0  0  0  0
  2  1  1  0  0  0  0
  3  2  1  0  0  0  0
  3  4  2  0  0  0  0
  5  3  1  0  0  0  0
  6 17  1  0  0  0  0
  6  5  1  0  0  0  0
  7  6  2  0  0  0  0
  8  7  1  0  0  0  0
  9 10  2  0  0  0  0
  9  7  1  0  0  0  0
 10 11  1  0  0  0  0
 11  5  2  0  0  0  0
 11 12  1  0  0  0  0
 13  9  1  0  0  0  0
 18 10  1  0  0  0  0
 19 13  1  0  0  0  0
M  END
