313312501.xyz
 OpenBabel08132112103D
COc1cc(I)c(cc1S)C(=O)N
 21 21  0  0  0  0  0  0  0  0999 V2000
    3.5904   -0.0118    2.5199 C   0  0  0  0  0  0  0  0  0  0  0  0
    2.3592   -0.0007    1.8279 O   0  0  0  0  0  0  0  0  0  0  0  0
    1.1984   -0.0000    2.5254 C   0  0  0  0  0  0  0  0  0  0  0  0
    1.1331   -0.0135    3.9211 C   0  0  0  0  0  0  0  0  0  0  0  0
   -0.1046    0.0010    4.5786 C   0  0  0  0  0  0  0  0  0  0  0  0
    0.0251   -0.1408    6.7131 I   0  0  0  0  0  0  0  0  0  0  0  0
   -1.3064    0.0246    3.8576 C   0  0  0  0  0  0  0  0  0  0  0  0
   -1.2126   -0.0000    2.4532 C   0  0  0  0  0  0  0  0  0  0  0  0
   -0.0000   -0.0000    1.7718 C   0  0  0  0  0  0  0  0  0  0  0  0
    0.0000    0.0000    0.0000 S   0  0  0  0  0  0  0  0  0  0  0  0
   -2.7306    0.0289    4.3753 C   0  0  0  0  0  0  0  0  0  0  0  0
   -3.6147   -0.5321    3.7498 O   0  0  0  0  0  0  0  0  0  0  0  0
   -2.9829    0.7436    5.5035 N   0  0  0  0  0  0  0  0  0  0  0  0
    3.7006    0.8785    3.1632 H   0  0  0  0  0  0  0  0  0  0  0  0
    4.3771   -0.0027    1.7548 H   0  0  0  0  0  0  0  0  0  0  0  0
    3.6984   -0.9191    3.1392 H   0  0  0  0  0  0  0  0  0  0  0  0
    2.0483   -0.0457    4.5082 H   0  0  0  0  0  0  0  0  0  0  0  0
   -2.1525   -0.0276    1.8988 H   0  0  0  0  0  0  0  0  0  0  0  0
    1.3430   -0.0500   -0.1281 H   0  0  0  0  0  0  0  0  0  0  0  0
   -3.9252    0.7087    5.8742 H   0  0  0  0  0  0  0  0  0  0  0  0
   -2.2554    1.1851    6.0488 H   0  0  0  0  0  0  0  0  0  0  0  0
  1 16  1  0  0  0  0
  1 14  1  0  0  0  0
  2  1  1  0  0  0  0
  2  3  1  0  0  0  0
  3  4  2  0  0  0  0
  4 17  1  0  0  0  0
  4  5  1  0  0  0  0
  5  6  1  0  0  0  0
  7 11  1  0  0  0  0
  7  5  2  0  0  0  0
  8  7  1  0  0  0  0
  9  8  2  0  0  0  0
  9  3  1  0  0  0  0
 10  9  1  0  0  0  0
 11 13  1  0  0  0  0
 12 11  2  0  0  0  0
 13 20  1  0  0  0  0
 13 21  1  0  0  0  0
 15  1  1  0  0  0  0
 18  8  1  0  0  0  0
 19 10  1  0  0  0  0
M  END
