313317931.xyz
 OpenBabel08132112103D
CCOc1c(S)cc(cc1C(=O)CBr)I
 25 25  0  0  0  0  0  0  0  0999 V2000
    4.4368   -0.9129    1.0771 C   0  0  0  0  0  0  0  0  0  0  0  0
    3.0449   -1.2141    1.5803 C   0  0  0  0  0  0  0  0  0  0  0  0
    2.3767    0.0440    1.8058 O   0  0  0  0  0  0  0  0  0  0  0  0
    1.2138   -0.0000    2.5004 C   0  0  0  0  0  0  0  0  0  0  0  0
    0.0000   -0.0000    1.7744 C   0  0  0  0  0  0  0  0  0  0  0  0
    0.0000    0.0000    0.0000 S   0  0  0  0  0  0  0  0  0  0  0  0
   -1.2254   -0.0095    2.4516 C   0  0  0  0  0  0  0  0  0  0  0  0
   -1.2424   -0.0094    3.8473 C   0  0  0  0  0  0  0  0  0  0  0  0
   -0.0596    0.0336    4.5784 C   0  0  0  0  0  0  0  0  0  0  0  0
    1.1832    0.0359    3.9151 C   0  0  0  0  0  0  0  0  0  0  0  0
    2.4522    0.1309    4.7054 C   0  0  0  0  0  0  0  0  0  0  0  0
    3.5414   -0.1681    4.2622 O   0  0  0  0  0  0  0  0  0  0  0  0
    2.3729    0.6677    6.1339 C   0  0  0  0  0  0  0  0  0  0  0  0
    1.9570   -0.7916    7.3902 Br  0  0  0  0  0  0  0  0  0  0  0  0
   -3.1043   -0.0479    4.8689 I   0  0  0  0  0  0  0  0  0  0  0  0
    4.4018   -0.3184    0.1506 H   0  0  0  0  0  0  0  0  0  0  0  0
    4.9917   -0.3479    1.8394 H   0  0  0  0  0  0  0  0  0  0  0  0
    4.9748   -1.8502    0.8671 H   0  0  0  0  0  0  0  0  0  0  0  0
    3.0838   -1.7724    2.5264 H   0  0  0  0  0  0  0  0  0  0  0  0
    2.4562   -1.7951    0.8479 H   0  0  0  0  0  0  0  0  0  0  0  0
    1.2976    0.3678   -0.1011 H   0  0  0  0  0  0  0  0  0  0  0  0
   -2.1571   -0.0106    1.8839 H   0  0  0  0  0  0  0  0  0  0  0  0
   -0.0979    0.0315    5.6662 H   0  0  0  0  0  0  0  0  0  0  0  0
    3.3646    1.0359    6.4148 H   0  0  0  0  0  0  0  0  0  0  0  0
    1.6073    1.4376    6.2796 H   0  0  0  0  0  0  0  0  0  0  0  0
  1  2  1  0  0  0  0
  1 17  1  0  0  0  0
  2  3  1  0  0  0  0
  2 19  1  0  0  0  0
  3  4  1  0  0  0  0
  4 10  2  0  0  0  0
  5  7  2  0  0  0  0
  5  4  1  0  0  0  0
  6  5  1  0  0  0  0
  7  8  1  0  0  0  0
  8  9  2  0  0  0  0
  8 15  1  0  0  0  0
  9 23  1  0  0  0  0
 10  9  1  0  0  0  0
 10 11  1  0  0  0  0
 11 13  1  0  0  0  0
 12 11  2  0  0  0  0
 13 25  1  0  0  0  0
 13 24  1  0  0  0  0
 13 14  1  0  0  0  0
 16  1  1  0  0  0  0
 18  1  1  0  0  0  0
 20  2  1  0  0  0  0
 21  6  1  0  0  0  0
 22  7  1  0  0  0  0
M  END
