313332543.xyz
 OpenBabel08132112103D
COC(=O)c1cc(I)c(cc1Br)S
 19 19  0  0  0  0  0  0  0  0999 V2000
   -0.9209   -0.0077    8.0773 C   0  0  0  0  0  0  0  0  0  0  0  0
   -0.8798   -0.0077    6.6524 O   0  0  0  0  0  0  0  0  0  0  0  0
    0.3527   -0.0002    6.0992 C   0  0  0  0  0  0  0  0  0  0  0  0
    1.3594    0.0057    6.7634 O   0  0  0  0  0  0  0  0  0  0  0  0
    0.2810   -0.0002    4.6058 C   0  0  0  0  0  0  0  0  0  0  0  0
   -0.9816   -0.0003    3.9875 C   0  0  0  0  0  0  0  0  0  0  0  0
   -1.1329    0.0001    2.6045 C   0  0  0  0  0  0  0  0  0  0  0  0
   -3.1208    0.0013    1.8441 I   0  0  0  0  0  0  0  0  0  0  0  0
   -0.0000    0.0000    1.7645 C   0  0  0  0  0  0  0  0  0  0  0  0
    1.2651    0.0000    2.3794 C   0  0  0  0  0  0  0  0  0  0  0  0
    1.4155    0.0001    3.7646 C   0  0  0  0  0  0  0  0  0  0  0  0
    3.2054   -0.0003    4.4013 Br  0  0  0  0  0  0  0  0  0  0  0  0
    0.0000    0.0000    0.0000 S   0  0  0  0  0  0  0  0  0  0  0  0
   -0.4261    0.8880    8.4821 H   0  0  0  0  0  0  0  0  0  0  0  0
   -0.4133   -0.8960    8.4825 H   0  0  0  0  0  0  0  0  0  0  0  0
   -1.9827   -0.0152    8.3516 H   0  0  0  0  0  0  0  0  0  0  0  0
   -1.8598   -0.0005    4.6295 H   0  0  0  0  0  0  0  0  0  0  0  0
    2.1589   -0.0002    1.7537 H   0  0  0  0  0  0  0  0  0  0  0  0
   -1.3451   -0.0025   -0.1524 H   0  0  0  0  0  0  0  0  0  0  0  0
  1 16  1  0  0  0  0
  1 14  1  0  0  0  0
  1 15  1  0  0  0  0
  2  1  1  0  0  0  0
  3  2  1  0  0  0  0
  3  4  2  0  0  0  0
  5  3  1  0  0  0  0
  6  5  1  0  0  0  0
  6 17  1  0  0  0  0
  7  6  2  0  0  0  0
  8  7  1  0  0  0  0
  9 10  2  0  0  0  0
  9  7  1  0  0  0  0
 10 11  1  0  0  0  0
 11 12  1  0  0  0  0
 11  5  2  0  0  0  0
 13  9  1  0  0  0  0
 18 10  1  0  0  0  0
 19 13  1  0  0  0  0
M  END
