313369683.xyz
 OpenBabel08132112103D
COC(=O)Cc1c(S)ccc(c1F)F
 22 22  0  0  0  0  0  0  0  0999 V2000
    4.6531   -3.0556    1.8475 C   0  0  0  0  0  0  0  0  0  0  0  0
    4.1446   -1.7524    2.1470 O   0  0  0  0  0  0  0  0  0  0  0  0
    3.0280   -1.3904    1.5095 C   0  0  0  0  0  0  0  0  0  0  0  0
    2.4601   -2.1029    0.7107 O   0  0  0  0  0  0  0  0  0  0  0  0
    2.5700    0.0024    1.9033 C   0  0  0  0  0  0  0  0  0  0  0  0
    1.1985    0.0000    2.5355 C   0  0  0  0  0  0  0  0  0  0  0  0
    0.0000   -0.0000    1.7862 C   0  0  0  0  0  0  0  0  0  0  0  0
    0.0000    0.0000    0.0000 S   0  0  0  0  0  0  0  0  0  0  0  0
   -1.2355    0.0606    2.4456 C   0  0  0  0  0  0  0  0  0  0  0  0
   -1.3050    0.1071    3.8389 C   0  0  0  0  0  0  0  0  0  0  0  0
   -0.1314    0.0748    4.5802 C   0  0  0  0  0  0  0  0  0  0  0  0
    1.1026    0.0106    3.9294 C   0  0  0  0  0  0  0  0  0  0  0  0
    2.2168   -0.0107    4.6725 F   0  0  0  0  0  0  0  0  0  0  0  0
   -0.1611    0.0974    5.9155 F   0  0  0  0  0  0  0  0  0  0  0  0
    4.8901   -3.1423    0.7768 H   0  0  0  0  0  0  0  0  0  0  0  0
    3.9129   -3.8271    2.1057 H   0  0  0  0  0  0  0  0  0  0  0  0
    5.5590   -3.1742    2.4532 H   0  0  0  0  0  0  0  0  0  0  0  0
    2.5229    0.5973    0.9768 H   0  0  0  0  0  0  0  0  0  0  0  0
    3.3067    0.4425    2.5842 H   0  0  0  0  0  0  0  0  0  0  0  0
    0.9054   -1.0037   -0.1310 H   0  0  0  0  0  0  0  0  0  0  0  0
   -2.1534    0.0540    1.8561 H   0  0  0  0  0  0  0  0  0  0  0  0
   -2.2609    0.1507    4.3637 H   0  0  0  0  0  0  0  0  0  0  0  0
  1 16  1  0  0  0  0
  1  2  1  0  0  0  0
  1 17  1  0  0  0  0
  3  5  1  0  0  0  0
  3  2  1  0  0  0  0
  4  3  2  0  0  0  0
  5  6  1  0  0  0  0
  5 19  1  0  0  0  0
  6 12  2  0  0  0  0
  7  9  2  0  0  0  0
  7  6  1  0  0  0  0
  8  7  1  0  0  0  0
  9 10  1  0  0  0  0
 10 22  1  0  0  0  0
 10 11  2  0  0  0  0
 11 14  1  0  0  0  0
 12 11  1  0  0  0  0
 12 13  1  0  0  0  0
 15  1  1  0  0  0  0
 18  5  1  0  0  0  0
 20  8  1  0  0  0  0
 21  9  1  0  0  0  0
M  END
