313324087.xyz
 OpenBabel08132112103D
CCOc1cc(C)cc(c1C(=O)C)S
 28 28  0  0  0  0  0  0  0  0999 V2000
    3.3044   -0.2899    6.7963 C   0  0  0  0  0  0  0  0  0  0  0  0
    1.9093   -0.1974    6.2122 C   0  0  0  0  0  0  0  0  0  0  0  0
    2.0305   -0.1562    4.7986 O   0  0  0  0  0  0  0  0  0  0  0  0
    0.9323   -0.0544    4.0142 C   0  0  0  0  0  0  0  0  0  0  0  0
   -0.3531   -0.0339    4.5542 C   0  0  0  0  0  0  0  0  0  0  0  0
   -1.4768    0.0284    3.7147 C   0  0  0  0  0  0  0  0  0  0  0  0
   -2.8583    0.0637    4.3130 C   0  0  0  0  0  0  0  0  0  0  0  0
   -1.2866    0.0360    2.3387 C   0  0  0  0  0  0  0  0  0  0  0  0
    0.0000   -0.0000    1.7674 C   0  0  0  0  0  0  0  0  0  0  0  0
    1.1558    0.0000    2.6020 C   0  0  0  0  0  0  0  0  0  0  0  0
    2.5360    0.0917    2.0392 C   0  0  0  0  0  0  0  0  0  0  0  0
    2.7857   -0.2257    0.8791 O   0  0  0  0  0  0  0  0  0  0  0  0
    3.6836    0.6492    2.8600 C   0  0  0  0  0  0  0  0  0  0  0  0
    0.0000    0.0000    0.0000 S   0  0  0  0  0  0  0  0  0  0  0  0
    3.2529   -0.3301    7.8949 H   0  0  0  0  0  0  0  0  0  0  0  0
    3.9077    0.5840    6.5080 H   0  0  0  0  0  0  0  0  0  0  0  0
    3.8158   -1.1965    6.4388 H   0  0  0  0  0  0  0  0  0  0  0  0
    1.2989   -1.0694    6.5095 H   0  0  0  0  0  0  0  0  0  0  0  0
    1.3897    0.7100    6.5708 H   0  0  0  0  0  0  0  0  0  0  0  0
   -0.5008   -0.0770    5.6318 H   0  0  0  0  0  0  0  0  0  0  0  0
   -3.0333   -0.8153    4.9551 H   0  0  0  0  0  0  0  0  0  0  0  0
   -3.6363    0.0804    3.5370 H   0  0  0  0  0  0  0  0  0  0  0  0
   -2.9886    0.9564    4.9472 H   0  0  0  0  0  0  0  0  0  0  0  0
   -2.1522    0.0524    1.6727 H   0  0  0  0  0  0  0  0  0  0  0  0
    3.3716    1.4639    3.5258 H   0  0  0  0  0  0  0  0  0  0  0  0
    4.1091   -0.1402    3.4961 H   0  0  0  0  0  0  0  0  0  0  0  0
    4.4497    0.9905    2.1512 H   0  0  0  0  0  0  0  0  0  0  0  0
    1.3344   -0.2594   -0.1017 H   0  0  0  0  0  0  0  0  0  0  0  0
  1 15  1  0  0  0  0
  2 18  1  0  0  0  0
  2 19  1  0  0  0  0
  2  1  1  0  0  0  0
  3  2  1  0  0  0  0
  4  5  1  0  0  0  0
  4  3  1  0  0  0  0
  5 20  1  0  0  0  0
  6  7  1  0  0  0  0
  6  5  2  0  0  0  0
  7 23  1  0  0  0  0
  7 21  1  0  0  0  0
  8  6  1  0  0  0  0
  9  8  2  0  0  0  0
  9 10  1  0  0  0  0
 10  4  2  0  0  0  0
 11 10  1  0  0  0  0
 11 13  1  0  0  0  0
 12 11  2  0  0  0  0
 13 26  1  0  0  0  0
 13 25  1  0  0  0  0
 14  9  1  0  0  0  0
 16  1  1  0  0  0  0
 17  1  1  0  0  0  0
 22  7  1  0  0  0  0
 24  8  1  0  0  0  0
 27 13  1  0  0  0  0
 28 14  1  0  0  0  0
M  END
