313365368.xyz
 OpenBabel08132112103D
COC(=O)Cc1cc(OC)cc(c1S)F
 26 26  0  0  0  0  0  0  0  0999 V2000
   -3.8292    2.4694   -0.7138 C   0  0  0  0  0  0  0  0  0  0  0  0
   -3.4973    1.2536   -0.0448 O   0  0  0  0  0  0  0  0  0  0  0  0
   -2.8030    1.3847    1.0990 C   0  0  0  0  0  0  0  0  0  0  0  0
   -2.4828    2.4447    1.5708 O   0  0  0  0  0  0  0  0  0  0  0  0
   -2.5219    0.0233    1.7228 C   0  0  0  0  0  0  0  0  0  0  0  0
   -1.2240   -0.0038    2.4862 C   0  0  0  0  0  0  0  0  0  0  0  0
   -1.2213   -0.0046    3.8782 C   0  0  0  0  0  0  0  0  0  0  0  0
   -0.0212   -0.0017    4.6063 C   0  0  0  0  0  0  0  0  0  0  0  0
   -0.1337   -0.0017    5.9563 O   0  0  0  0  0  0  0  0  0  0  0  0
    1.0399    0.0177    6.7357 C   0  0  0  0  0  0  0  0  0  0  0  0
    1.1982    0.0016    3.9189 C   0  0  0  0  0  0  0  0  0  0  0  0
    1.1781   -0.0000    2.5266 C   0  0  0  0  0  0  0  0  0  0  0  0
    0.0000   -0.0000    1.7803 C   0  0  0  0  0  0  0  0  0  0  0  0
    0.0000    0.0000    0.0000 S   0  0  0  0  0  0  0  0  0  0  0  0
    2.3615    0.0034    1.8822 F   0  0  0  0  0  0  0  0  0  0  0  0
   -4.4312    3.1233   -0.0650 H   0  0  0  0  0  0  0  0  0  0  0  0
   -2.9159    3.0114   -1.0023 H   0  0  0  0  0  0  0  0  0  0  0  0
   -4.4005    2.1830   -1.6052 H   0  0  0  0  0  0  0  0  0  0  0  0
   -3.3623   -0.1934    2.4015 H   0  0  0  0  0  0  0  0  0  0  0  0
   -2.5480   -0.7398    0.9302 H   0  0  0  0  0  0  0  0  0  0  0  0
   -2.1602    0.0014    4.4337 H   0  0  0  0  0  0  0  0  0  0  0  0
    1.6666   -0.8742    6.5545 H   0  0  0  0  0  0  0  0  0  0  0  0
    1.6449    0.9216    6.5415 H   0  0  0  0  0  0  0  0  0  0  0  0
    0.7199    0.0212    7.7858 H   0  0  0  0  0  0  0  0  0  0  0  0
    2.1650    0.0044    4.4187 H   0  0  0  0  0  0  0  0  0  0  0  0
    1.3362    0.1403   -0.1288 H   0  0  0  0  0  0  0  0  0  0  0  0
  1 16  1  0  0  0  0
  1  2  1  0  0  0  0
  2  3  1  0  0  0  0
  3  4  2  0  0  0  0
  3  5  1  0  0  0  0
  5 19  1  0  0  0  0
  5  6  1  0  0  0  0
  6  7  1  0  0  0  0
  7 21  1  0  0  0  0
  7  8  2  0  0  0  0
  8  9  1  0  0  0  0
  9 10  1  0  0  0  0
 10 24  1  0  0  0  0
 11 25  1  0  0  0  0
 11  8  1  0  0  0  0
 12 11  2  0  0  0  0
 13  6  2  0  0  0  0
 13 12  1  0  0  0  0
 14 13  1  0  0  0  0
 15 12  1  0  0  0  0
 17  1  1  0  0  0  0
 18  1  1  0  0  0  0
 20  5  1  0  0  0  0
 22 10  1  0  0  0  0
 23 10  1  0  0  0  0
 26 14  1  0  0  0  0
M  END
