313315626.xyz
 OpenBabel08132112103D
CCOc1cc(S)cc(c1I)CO
 24 24  0  0  0  0  0  0  0  0999 V2000
    4.8199   -0.0265    4.8522 C   0  0  0  0  0  0  0  0  0  0  0  0
    3.7166   -0.0154    3.8145 C   0  0  0  0  0  0  0  0  0  0  0  0
    2.4753   -0.0120    4.5044 O   0  0  0  0  0  0  0  0  0  0  0  0
    1.3156   -0.0059    3.8190 C   0  0  0  0  0  0  0  0  0  0  0  0
    1.2465    0.0000    2.4195 C   0  0  0  0  0  0  0  0  0  0  0  0
    0.0000   -0.0000    1.7776 C   0  0  0  0  0  0  0  0  0  0  0  0
    0.0000    0.0000    0.0000 S   0  0  0  0  0  0  0  0  0  0  0  0
   -1.1755    0.0002    2.5326 C   0  0  0  0  0  0  0  0  0  0  0  0
   -1.1259    0.0039    3.9332 C   0  0  0  0  0  0  0  0  0  0  0  0
    0.1199   -0.0059    4.5696 C   0  0  0  0  0  0  0  0  0  0  0  0
    0.2784   -0.0481    6.6904 I   0  0  0  0  0  0  0  0  0  0  0  0
   -2.4332   -0.0038    4.7095 C   0  0  0  0  0  0  0  0  0  0  0  0
   -3.5702    0.2510    3.9195 O   0  0  0  0  0  0  0  0  0  0  0  0
    5.8044   -0.0292    4.3599 H   0  0  0  0  0  0  0  0  0  0  0  0
    4.7517    0.8619    5.4976 H   0  0  0  0  0  0  0  0  0  0  0  0
    4.7423   -0.9207    5.4885 H   0  0  0  0  0  0  0  0  0  0  0  0
    3.7785   -0.9047    3.1604 H   0  0  0  0  0  0  0  0  0  0  0  0
    3.7883    0.8793    3.1688 H   0  0  0  0  0  0  0  0  0  0  0  0
    2.1590   -0.0008    1.8249 H   0  0  0  0  0  0  0  0  0  0  0  0
   -1.3406   -0.0635   -0.1540 H   0  0  0  0  0  0  0  0  0  0  0  0
   -2.1561   -0.0125    2.0564 H   0  0  0  0  0  0  0  0  0  0  0  0
   -2.5770   -1.0022    5.1561 H   0  0  0  0  0  0  0  0  0  0  0  0
   -2.3540    0.7003    5.5584 H   0  0  0  0  0  0  0  0  0  0  0  0
   -3.5335    1.1742    3.6353 H   0  0  0  0  0  0  0  0  0  0  0  0
  1 16  1  0  0  0  0
  1 15  1  0  0  0  0
  2  3  1  0  0  0  0
  2  1  1  0  0  0  0
  4  3  1  0  0  0  0
  4 10  2  0  0  0  0
  5  4  1  0  0  0  0
  6  5  2  0  0  0  0
  6  8  1  0  0  0  0
  7  6  1  0  0  0  0
  8  9  2  0  0  0  0
  9 10  1  0  0  0  0
  9 12  1  0  0  0  0
 10 11  1  0  0  0  0
 12 22  1  0  0  0  0
 12 23  1  0  0  0  0
 13 12  1  0  0  0  0
 14  1  1  0  0  0  0
 17  2  1  0  0  0  0
 18  2  1  0  0  0  0
 19  5  1  0  0  0  0
 20  7  1  0  0  0  0
 21  8  1  0  0  0  0
 24 13  1  0  0  0  0
M  END
