313344293.xyz
 OpenBabel08132112103D
COC(=O)Cc1cc(C(F)F)c(cc1S)Br
 25 25  0  0  0  0  0  0  0  0999 V2000
    2.5409    3.6441    0.9588 C   0  0  0  0  0  0  0  0  0  0  0  0
    2.3147    2.3732    1.5681 O   0  0  0  0  0  0  0  0  0  0  0  0
    2.8564    1.3156    0.9458 C   0  0  0  0  0  0  0  0  0  0  0  0
    3.5409    1.3929   -0.0416 O   0  0  0  0  0  0  0  0  0  0  0  0
    2.5364    0.0101    1.6687 C   0  0  0  0  0  0  0  0  0  0  0  0
    1.2440   -0.0000    2.4402 C   0  0  0  0  0  0  0  0  0  0  0  0
    1.2401    0.0138    3.8358 C   0  0  0  0  0  0  0  0  0  0  0  0
    0.0680    0.0240    4.5980 C   0  0  0  0  0  0  0  0  0  0  0  0
    0.1925    0.0394    6.0987 C   0  0  0  0  0  0  0  0  0  0  0  0
   -0.3976   -1.0507    6.6583 F   0  0  0  0  0  0  0  0  0  0  0  0
   -0.3987    1.1401    6.6356 F   0  0  0  0  0  0  0  0  0  0  0  0
   -1.1566    0.0194    3.9111 C   0  0  0  0  0  0  0  0  0  0  0  0
   -1.1901    0.0069    2.5177 C   0  0  0  0  0  0  0  0  0  0  0  0
   -0.0000   -0.0000    1.7766 C   0  0  0  0  0  0  0  0  0  0  0  0
    0.0000    0.0000    0.0000 S   0  0  0  0  0  0  0  0  0  0  0  0
   -2.8234    0.0285    4.8296 Br  0  0  0  0  0  0  0  0  0  0  0  0
    2.1221    3.6618   -0.0585 H   0  0  0  0  0  0  0  0  0  0  0  0
    3.6176    3.8621    0.8977 H   0  0  0  0  0  0  0  0  0  0  0  0
    2.0349    4.3814    1.5935 H   0  0  0  0  0  0  0  0  0  0  0  0
    2.5650   -0.7808    0.9032 H   0  0  0  0  0  0  0  0  0  0  0  0
    3.3812   -0.1840    2.3492 H   0  0  0  0  0  0  0  0  0  0  0  0
    2.2012    0.0212    4.3579 H   0  0  0  0  0  0  0  0  0  0  0  0
    1.2542    0.0431    6.4018 H   0  0  0  0  0  0  0  0  0  0  0  0
   -2.1564    0.0037    2.0120 H   0  0  0  0  0  0  0  0  0  0  0  0
   -1.3423    0.0335   -0.1479 H   0  0  0  0  0  0  0  0  0  0  0  0
  1  2  1  0  0  0  0
  1 19  1  0  0  0  0
  3  2  1  0  0  0  0
  3  5  1  0  0  0  0
  4  3  2  0  0  0  0
  5 21  1  0  0  0  0
  5  6  1  0  0  0  0
  6  7  1  0  0  0  0
  7 22  1  0  0  0  0
  7  8  2  0  0  0  0
  8  9  1  0  0  0  0
  9 23  1  0  0  0  0
  9 11  1  0  0  0  0
  9 10  1  0  0  0  0
 12  8  1  0  0  0  0
 12 16  1  0  0  0  0
 13 12  2  0  0  0  0
 14  6  2  0  0  0  0
 14 13  1  0  0  0  0
 15 14  1  0  0  0  0
 17  1  1  0  0  0  0
 18  1  1  0  0  0  0
 20  5  1  0  0  0  0
 24 13  1  0  0  0  0
 25 15  1  0  0  0  0
M  END
