313315480.xyz
 OpenBabel08132112103D
CCOC(=O)c1cc(c(cc1S)Cl)C(F)(F)F
 25 25  0  0  0  0  0  0  0  0999 V2000
   -5.6738    0.0101    3.9252 C   0  0  0  0  0  0  0  0  0  0  0  0
   -4.8350    0.0035    2.6667 C   0  0  0  0  0  0  0  0  0  0  0  0
   -3.4510    0.0025    3.0618 O   0  0  0  0  0  0  0  0  0  0  0  0
   -2.5375    0.0006    2.0841 C   0  0  0  0  0  0  0  0  0  0  0  0
   -2.8614   -0.0003    0.9084 O   0  0  0  0  0  0  0  0  0  0  0  0
   -1.1432    0.0001    2.6048 C   0  0  0  0  0  0  0  0  0  0  0  0
   -0.9522   -0.0000    3.9982 C   0  0  0  0  0  0  0  0  0  0  0  0
    0.3051   -0.0000    4.5877 C   0  0  0  0  0  0  0  0  0  0  0  0
    1.4311    0.0001    3.7384 C   0  0  0  0  0  0  0  0  0  0  0  0
    1.2752   -0.0000    2.3595 C   0  0  0  0  0  0  0  0  0  0  0  0
    0.0000   -0.0000    1.7606 C   0  0  0  0  0  0  0  0  0  0  0  0
    0.0000    0.0000    0.0000 S   0  0  0  0  0  0  0  0  0  0  0  0
    3.0470    0.0001    4.3807 Cl  0  0  0  0  0  0  0  0  0  0  0  0
    0.4310    0.0001    6.0927 C   0  0  0  0  0  0  0  0  0  0  0  0
    1.0881    1.0823    6.5406 F   0  0  0  0  0  0  0  0  0  0  0  0
    1.0886   -1.0816    6.5409 F   0  0  0  0  0  0  0  0  0  0  0  0
   -0.7784   -0.0000    6.6825 F   0  0  0  0  0  0  0  0  0  0  0  0
   -6.7425    0.0106    3.6617 H   0  0  0  0  0  0  0  0  0  0  0  0
   -5.4666    0.9048    4.5317 H   0  0  0  0  0  0  0  0  0  0  0  0
   -5.4693   -0.8801    4.5393 H   0  0  0  0  0  0  0  0  0  0  0  0
   -5.0243   -0.8846    2.0431 H   0  0  0  0  0  0  0  0  0  0  0  0
   -5.0209    0.8871    2.0359 H   0  0  0  0  0  0  0  0  0  0  0  0
   -1.8318   -0.0001    4.6372 H   0  0  0  0  0  0  0  0  0  0  0  0
    2.1653   -0.0000    1.7292 H   0  0  0  0  0  0  0  0  0  0  0  0
   -1.3566   -0.0005   -0.1130 H   0  0  0  0  0  0  0  0  0  0  0  0
  1 19  1  0  0  0  0
  1 20  1  0  0  0  0
  2  3  1  0  0  0  0
  2  1  1  0  0  0  0
  4  6  1  0  0  0  0
  4  3  1  0  0  0  0
  5  4  2  0  0  0  0
  6  7  2  0  0  0  0
  7  8  1  0  0  0  0
  7 23  1  0  0  0  0
  8 14  1  0  0  0  0
  9 13  1  0  0  0  0
  9  8  2  0  0  0  0
 10  9  1  0  0  0  0
 11 10  2  0  0  0  0
 11  6  1  0  0  0  0
 12 11  1  0  0  0  0
 14 15  1  0  0  0  0
 14 16  1  0  0  0  0
 14 17  1  0  0  0  0
 18  1  1  0  0  0  0
 21  2  1  0  0  0  0
 22  2  1  0  0  0  0
 24 10  1  0  0  0  0
 25 12  1  0  0  0  0
M  END
