313385479.xyz
 OpenBabel08132112103D
N#Cc1cc([N+](=O)[O-])c(cc1S)C(F)(F)F
 19 19  0  0  0  0  0  0  0  0999 V2000
    3.5014   -0.0018    1.4280 N   0  0  0  0  0  0  0  0  0  0  0  0
    2.4657   -0.0014    1.9529 C   0  0  0  0  0  0  0  0  0  0  0  0
    1.1684    0.0000    2.5582 C   0  0  0  0  0  0  0  0  0  0  0  0
    1.0528   -0.0022    3.9543 C   0  0  0  0  0  0  0  0  0  0  0  0
   -0.1955    0.0224    4.5606 C   0  0  0  0  0  0  0  0  0  0  0  0
   -0.1953    0.0848    6.0361 N   0  0  0  0  0  0  0  0  0  0  0  0
   -1.1119    0.6776    6.5720 O   0  0  0  0  0  0  0  0  0  0  0  0
    0.7491   -0.4337    6.6072 O   0  0  0  0  0  0  0  0  0  0  0  0
   -1.3738    0.0073    3.7874 C   0  0  0  0  0  0  0  0  0  0  0  0
   -1.2502   -0.0117    2.4010 C   0  0  0  0  0  0  0  0  0  0  0  0
    0.0000    0.0000    1.7570 C   0  0  0  0  0  0  0  0  0  0  0  0
    0.0000    0.0000    0.0000 S   0  0  0  0  0  0  0  0  0  0  0  0
   -2.7846   -0.0409    4.3702 C   0  0  0  0  0  0  0  0  0  0  0  0
   -3.6641   -0.4081    3.4178 F   0  0  0  0  0  0  0  0  0  0  0  0
   -2.8748   -0.9435    5.3520 F   0  0  0  0  0  0  0  0  0  0  0  0
   -3.1821    1.1461    4.8269 F   0  0  0  0  0  0  0  0  0  0  0  0
    1.9421   -0.0195    4.5829 H   0  0  0  0  0  0  0  0  0  0  0  0
   -2.1560   -0.0489    1.7968 H   0  0  0  0  0  0  0  0  0  0  0  0
    1.3434   -0.0080   -0.1634 H   0  0  0  0  0  0  0  0  0  0  0  0
  1  2  3  0  0  0  0
  2  3  1  0  0  0  0
  3  4  2  0  0  0  0
  4  5  1  0  0  0  0
  4 17  1  0  0  0  0
  5  6  1  0  0  0  0
  6  7  2  0  0  0  0
  6  8  2  0  0  0  0
  9 13  1  0  0  0  0
  9  5  2  0  0  0  0
 10  9  1  0  0  0  0
 11 10  2  0  0  0  0
 11  3  1  0  0  0  0
 12 11  1  0  0  0  0
 13 16  1  0  0  0  0
 13 15  1  0  0  0  0
 14 13  1  0  0  0  0
 18 10  1  0  0  0  0
 19 12  1  0  0  0  0
M  END
