313339406.xyz
 OpenBabel08132112103D
N#CCc1c(cc(cc1I)S)OC(F)(F)F
 21 21  0  0  0  0  0  0  0  0999 V2000
   -0.6902   -2.3351    7.1555 N   0  0  0  0  0  0  0  0  0  0  0  0
   -0.4549   -1.2953    6.7041 C   0  0  0  0  0  0  0  0  0  0  0  0
   -0.1617    0.0221    6.1287 C   0  0  0  0  0  0  0  0  0  0  0  0
   -0.1407    0.0153    4.6141 C   0  0  0  0  0  0  0  0  0  0  0  0
    1.0816   -0.0040    3.9256 C   0  0  0  0  0  0  0  0  0  0  0  0
    1.1734   -0.0000    2.5366 C   0  0  0  0  0  0  0  0  0  0  0  0
    0.0000   -0.0000    1.7730 C   0  0  0  0  0  0  0  0  0  0  0  0
   -1.2433    0.0122    2.4253 C   0  0  0  0  0  0  0  0  0  0  0  0
   -1.3004    0.0226    3.8188 C   0  0  0  0  0  0  0  0  0  0  0  0
   -3.2274    0.0413    4.7181 I   0  0  0  0  0  0  0  0  0  0  0  0
    0.0000    0.0000    0.0000 S   0  0  0  0  0  0  0  0  0  0  0  0
    2.2569    0.0415    4.6753 O   0  0  0  0  0  0  0  0  0  0  0  0
    2.9878   -1.0961    4.8041 C   0  0  0  0  0  0  0  0  0  0  0  0
    3.9676   -0.8477    5.6584 F   0  0  0  0  0  0  0  0  0  0  0  0
    2.2504   -2.1115    5.2622 F   0  0  0  0  0  0  0  0  0  0  0  0
    3.5246   -1.4851    3.6375 F   0  0  0  0  0  0  0  0  0  0  0  0
   -0.9225    0.7306    6.4924 H   0  0  0  0  0  0  0  0  0  0  0  0
    0.8126    0.3581    6.5102 H   0  0  0  0  0  0  0  0  0  0  0  0
    2.1596    0.0031    2.0742 H   0  0  0  0  0  0  0  0  0  0  0  0
   -2.1647    0.0151    1.8418 H   0  0  0  0  0  0  0  0  0  0  0  0
    1.3408   -0.0619   -0.1551 H   0  0  0  0  0  0  0  0  0  0  0  0
  2  1  3  0  0  0  0
  3 17  1  0  0  0  0
  3 18  1  0  0  0  0
  3  2  1  0  0  0  0
  4  3  1  0  0  0  0
  5  4  1  0  0  0  0
  5 12  1  0  0  0  0
  6  5  2  0  0  0  0
  7  8  2  0  0  0  0
  7  6  1  0  0  0  0
  8  9  1  0  0  0  0
  9  4  2  0  0  0  0
  9 10  1  0  0  0  0
 11  7  1  0  0  0  0
 12 13  1  0  0  0  0
 13 15  1  0  0  0  0
 13 14  1  0  0  0  0
 16 13  1  0  0  0  0
 19  6  1  0  0  0  0
 20  8  1  0  0  0  0
 21 11  1  0  0  0  0
M  END
