313320755.xyz
 OpenBabel08132112103D
CCOc1cc(S)c(cc1C(F)(F)F)C(=O)CBr
 28 28  0  0  0  0  0  0  0  0999 V2000
   -4.2984    1.2280    3.1346 C   0  0  0  0  0  0  0  0  0  0  0  0
   -3.9188   -0.1923    3.5204 C   0  0  0  0  0  0  0  0  0  0  0  0
   -2.7183   -0.2385    4.2929 O   0  0  0  0  0  0  0  0  0  0  0  0
   -1.5125   -0.1472    3.7181 C   0  0  0  0  0  0  0  0  0  0  0  0
   -1.2918   -0.0780    2.3377 C   0  0  0  0  0  0  0  0  0  0  0  0
    0.0000   -0.0000    1.7941 C   0  0  0  0  0  0  0  0  0  0  0  0
    0.0000    0.0000    0.0000 S   0  0  0  0  0  0  0  0  0  0  0  0
    1.1275    0.0000    2.6539 C   0  0  0  0  0  0  0  0  0  0  0  0
    0.8748   -0.0440    4.0422 C   0  0  0  0  0  0  0  0  0  0  0  0
   -0.3948   -0.1134    4.5843 C   0  0  0  0  0  0  0  0  0  0  0  0
   -0.5972   -0.1535    6.0794 C   0  0  0  0  0  0  0  0  0  0  0  0
   -1.2221   -1.2769    6.4699 F   0  0  0  0  0  0  0  0  0  0  0  0
   -1.3353    0.8846    6.5096 F   0  0  0  0  0  0  0  0  0  0  0  0
    0.5757   -0.1038    6.7343 F   0  0  0  0  0  0  0  0  0  0  0  0
    2.5910   -0.0273    2.3162 C   0  0  0  0  0  0  0  0  0  0  0  0
    3.4173   -0.1836    3.1958 O   0  0  0  0  0  0  0  0  0  0  0  0
    3.1123    0.1236    0.8969 C   0  0  0  0  0  0  0  0  0  0  0  0
    3.0563    2.0235    0.3652 Br  0  0  0  0  0  0  0  0  0  0  0  0
   -4.3849    1.8555    4.0342 H   0  0  0  0  0  0  0  0  0  0  0  0
   -5.2692    1.2281    2.6147 H   0  0  0  0  0  0  0  0  0  0  0  0
   -3.5534    1.6860    2.4670 H   0  0  0  0  0  0  0  0  0  0  0  0
   -4.6811   -0.6318    4.1788 H   0  0  0  0  0  0  0  0  0  0  0  0
   -3.8258   -0.8495    2.6393 H   0  0  0  0  0  0  0  0  0  0  0  0
   -2.1336   -0.0585    1.6492 H   0  0  0  0  0  0  0  0  0  0  0  0
    0.8098    1.0747   -0.1776 H   0  0  0  0  0  0  0  0  0  0  0  0
    1.7422   -0.0387    4.7009 H   0  0  0  0  0  0  0  0  0  0  0  0
    2.5311   -0.4265    0.1492 H   0  0  0  0  0  0  0  0  0  0  0  0
    4.1691   -0.1595    0.8915 H   0  0  0  0  0  0  0  0  0  0  0  0
  1  2  1  0  0  0  0
  1 19  1  0  0  0  0
  2 22  1  0  0  0  0
  2  3  1  0  0  0  0
  4  3  1  0  0  0  0
  4 10  2  0  0  0  0
  5  4  1  0  0  0  0
  6  5  2  0  0  0  0
  6  8  1  0  0  0  0
  7  6  1  0  0  0  0
  8  9  2  0  0  0  0
  9 10  1  0  0  0  0
  9 26  1  0  0  0  0
 10 11  1  0  0  0  0
 11 12  1  0  0  0  0
 11 13  1  0  0  0  0
 11 14  1  0  0  0  0
 15  8  1  0  0  0  0
 15 16  2  0  0  0  0
 17 15  1  0  0  0  0
 18 17  1  0  0  0  0
 20  1  1  0  0  0  0
 21  1  1  0  0  0  0
 23  2  1  0  0  0  0
 24  5  1  0  0  0  0
 25  7  1  0  0  0  0
 27 17  1  0  0  0  0
 28 17  1  0  0  0  0
M  END
