313374815.xyz
 OpenBabel08132112103D
CCOc1cc(C(=O)OC)c(cc1F)S
 26 26  0  0  0  0  0  0  0  0999 V2000
   -0.0722    0.0035    8.2465 C   0  0  0  0  0  0  0  0  0  0  0  0
    0.5001    0.0019    6.8442 C   0  0  0  0  0  0  0  0  0  0  0  0
   -0.5843   -0.0012    5.9288 O   0  0  0  0  0  0  0  0  0  0  0  0
   -0.3161   -0.0005    4.6051 C   0  0  0  0  0  0  0  0  0  0  0  0
    0.9455   -0.0003    4.0255 C   0  0  0  0  0  0  0  0  0  0  0  0
    1.1318    0.0000    2.6209 C   0  0  0  0  0  0  0  0  0  0  0  0
    2.5228   -0.0000    2.1056 C   0  0  0  0  0  0  0  0  0  0  0  0
    2.8624    0.0002    0.9347 O   0  0  0  0  0  0  0  0  0  0  0  0
    3.4420   -0.0004    3.0897 O   0  0  0  0  0  0  0  0  0  0  0  0
    4.8069   -0.0004    2.6779 C   0  0  0  0  0  0  0  0  0  0  0  0
   -0.0000   -0.0000    1.7686 C   0  0  0  0  0  0  0  0  0  0  0  0
   -1.2787   -0.0004    2.3637 C   0  0  0  0  0  0  0  0  0  0  0  0
   -1.4288   -0.0006    3.7347 C   0  0  0  0  0  0  0  0  0  0  0  0
   -2.6510   -0.0008    4.2668 F   0  0  0  0  0  0  0  0  0  0  0  0
    0.0000    0.0000    0.0000 S   0  0  0  0  0  0  0  0  0  0  0  0
   -0.6972    0.8946    8.4080 H   0  0  0  0  0  0  0  0  0  0  0  0
    0.7404    0.0055    8.9889 H   0  0  0  0  0  0  0  0  0  0  0  0
   -0.6952   -0.8885    8.4108 H   0  0  0  0  0  0  0  0  0  0  0  0
    1.1321    0.8937    6.6727 H   0  0  0  0  0  0  0  0  0  0  0  0
    1.1345   -0.8888    6.6758 H   0  0  0  0  0  0  0  0  0  0  0  0
    1.8342   -0.0003    4.6496 H   0  0  0  0  0  0  0  0  0  0  0  0
    5.4017   -0.0012    3.5993 H   0  0  0  0  0  0  0  0  0  0  0  0
    5.0335    0.8922    2.0759 H   0  0  0  0  0  0  0  0  0  0  0  0
    5.0331   -0.8920    2.0744 H   0  0  0  0  0  0  0  0  0  0  0  0
   -2.1780   -0.0004    1.7451 H   0  0  0  0  0  0  0  0  0  0  0  0
    1.3531    0.0000   -0.1193 H   0  0  0  0  0  0  0  0  0  0  0  0
  1 16  1  0  0  0  0
  1 18  1  0  0  0  0
  1 17  1  0  0  0  0
  2  1  1  0  0  0  0
  3  2  1  0  0  0  0
  4  3  1  0  0  0  0
  5  4  1  0  0  0  0
  5 21  1  0  0  0  0
  6  5  2  0  0  0  0
  7  6  1  0  0  0  0
  7  9  1  0  0  0  0
  8  7  2  0  0  0  0
 10  9  1  0  0  0  0
 10 22  1  0  0  0  0
 11 12  2  0  0  0  0
 11  6  1  0  0  0  0
 12 13  1  0  0  0  0
 13 14  1  0  0  0  0
 13  4  2  0  0  0  0
 15 11  1  0  0  0  0
 19  2  1  0  0  0  0
 20  2  1  0  0  0  0
 23 10  1  0  0  0  0
 24 10  1  0  0  0  0
 25 12  1  0  0  0  0
 26 15  1  0  0  0  0
M  END
