313314719.xyz
 OpenBabel08132112103D
CCOC(=O)c1c(S)ccc(c1Cl)[N+](=O)[O-]
 24 24  0  0  0  0  0  0  0  0999 V2000
   -4.5092    2.1490    0.5687 C   0  0  0  0  0  0  0  0  0  0  0  0
   -4.5497    1.3444    1.8545 C   0  0  0  0  0  0  0  0  0  0  0  0
   -3.2221    1.1475    2.3866 O   0  0  0  0  0  0  0  0  0  0  0  0
   -2.5172    0.1211    1.9230 C   0  0  0  0  0  0  0  0  0  0  0  0
   -2.8934   -0.6198    1.0399 O   0  0  0  0  0  0  0  0  0  0  0  0
   -1.1649    0.0336    2.5739 C   0  0  0  0  0  0  0  0  0  0  0  0
   -0.0000   -0.0000    1.7706 C   0  0  0  0  0  0  0  0  0  0  0  0
    0.0000    0.0000    0.0000 S   0  0  0  0  0  0  0  0  0  0  0  0
    1.2639   -0.0000    2.3881 C   0  0  0  0  0  0  0  0  0  0  0  0
    1.3731   -0.0052    3.7677 C   0  0  0  0  0  0  0  0  0  0  0  0
    0.2268   -0.0072    4.5660 C   0  0  0  0  0  0  0  0  0  0  0  0
   -1.0473   -0.0032    3.9788 C   0  0  0  0  0  0  0  0  0  0  0  0
   -2.4800   -0.1710    4.9449 Cl  0  0  0  0  0  0  0  0  0  0  0  0
    0.4412   -0.0180    6.0234 N   0  0  0  0  0  0  0  0  0  0  0  0
    1.4276   -0.6179    6.4239 O   0  0  0  0  0  0  0  0  0  0  0  0
   -0.3445    0.5926    6.7234 O   0  0  0  0  0  0  0  0  0  0  0  0
   -5.5349    2.3484    0.2208 H   0  0  0  0  0  0  0  0  0  0  0  0
   -4.0032    3.1136    0.7261 H   0  0  0  0  0  0  0  0  0  0  0  0
   -3.9804    1.5947   -0.2202 H   0  0  0  0  0  0  0  0  0  0  0  0
   -5.0160    0.3614    1.6970 H   0  0  0  0  0  0  0  0  0  0  0  0
   -5.0855    1.8769    2.6520 H   0  0  0  0  0  0  0  0  0  0  0  0
   -1.2481   -0.5049   -0.1422 H   0  0  0  0  0  0  0  0  0  0  0  0
    2.1627   -0.0229    1.7697 H   0  0  0  0  0  0  0  0  0  0  0  0
    2.3453   -0.0342    4.2592 H   0  0  0  0  0  0  0  0  0  0  0  0
  1 18  1  0  0  0  0
  1  2  1  0  0  0  0
  2  3  1  0  0  0  0
  2 21  1  0  0  0  0
  4  3  1  0  0  0  0
  4  6  1  0  0  0  0
  5  4  2  0  0  0  0
  6 12  2  0  0  0  0
  7  9  2  0  0  0  0
  7  6  1  0  0  0  0
  8  7  1  0  0  0  0
  9 10  1  0  0  0  0
 10 24  1  0  0  0  0
 10 11  2  0  0  0  0
 11 14  1  0  0  0  0
 12 11  1  0  0  0  0
 12 13  1  0  0  0  0
 14 15  2  0  0  0  0
 14 16  2  0  0  0  0
 17  1  1  0  0  0  0
 19  1  1  0  0  0  0
 20  2  1  0  0  0  0
 22  8  1  0  0  0  0
 23  9  1  0  0  0  0
M  END
