313301738.xyz
 OpenBabel08132112103D
N#CCc1ccc(c(c1S)F)C(F)(F)F
 20 20  0  0  0  0  0  0  0  0999 V2000
   -4.6914    0.0008    3.1235 N   0  0  0  0  0  0  0  0  0  0  0  0
   -3.7301    0.0006    2.4782 C   0  0  0  0  0  0  0  0  0  0  0  0
   -2.5113    0.0003    1.6731 C   0  0  0  0  0  0  0  0  0  0  0  0
   -1.2242    0.0001    2.4771 C   0  0  0  0  0  0  0  0  0  0  0  0
   -1.2163   -0.0000    3.8742 C   0  0  0  0  0  0  0  0  0  0  0  0
   -0.0173   -0.0001    4.5864 C   0  0  0  0  0  0  0  0  0  0  0  0
    1.2015   -0.0001    3.9058 C   0  0  0  0  0  0  0  0  0  0  0  0
    1.1896    0.0000    2.5104 C   0  0  0  0  0  0  0  0  0  0  0  0
   -0.0000    0.0000    1.7746 C   0  0  0  0  0  0  0  0  0  0  0  0
    0.0000    0.0000    0.0000 S   0  0  0  0  0  0  0  0  0  0  0  0
    2.3570    0.0000    1.8492 F   0  0  0  0  0  0  0  0  0  0  0  0
    2.5191   -0.0001    4.6430 C   0  0  0  0  0  0  0  0  0  0  0  0
    3.2547   -1.0816    4.3393 F   0  0  0  0  0  0  0  0  0  0  0  0
    3.2543    1.0817    4.3399 F   0  0  0  0  0  0  0  0  0  0  0  0
    2.3336   -0.0006    5.9729 F   0  0  0  0  0  0  0  0  0  0  0  0
   -2.5354    0.8806    1.0057 H   0  0  0  0  0  0  0  0  0  0  0  0
   -2.5357   -0.8800    1.0058 H   0  0  0  0  0  0  0  0  0  0  0  0
   -2.1654    0.0000    4.4124 H   0  0  0  0  0  0  0  0  0  0  0  0
   -0.0210   -0.0003    5.6760 H   0  0  0  0  0  0  0  0  0  0  0  0
    1.3430   -0.0007   -0.1354 H   0  0  0  0  0  0  0  0  0  0  0  0
  2  1  3  0  0  0  0
  3  4  1  0  0  0  0
  3  2  1  0  0  0  0
  4  5  1  0  0  0  0
  5 18  1  0  0  0  0
  5  6  2  0  0  0  0
  6 19  1  0  0  0  0
  7  6  1  0  0  0  0
  7 12  1  0  0  0  0
  8  7  2  0  0  0  0
  9  4  2  0  0  0  0
  9  8  1  0  0  0  0
 10  9  1  0  0  0  0
 11  8  1  0  0  0  0
 12 15  1  0  0  0  0
 13 12  1  0  0  0  0
 14 12  1  0  0  0  0
 16  3  1  0  0  0  0
 17  3  1  0  0  0  0
 20 10  1  0  0  0  0
M  END
