313325112.xyz
 OpenBabel08132112103D
CCOc1ccc(c(c1C(=O)C)C)S
 28 28  0  0  0  0  0  0  0  0999 V2000
   -0.1424   -1.3267    8.0245 C   0  0  0  0  0  0  0  0  0  0  0  0
   -0.1929   -1.4705    6.5191 C   0  0  0  0  0  0  0  0  0  0  0  0
   -0.2291   -0.1585    5.9430 O   0  0  0  0  0  0  0  0  0  0  0  0
   -0.1694   -0.1198    4.5726 C   0  0  0  0  0  0  0  0  0  0  0  0
   -1.3375   -0.1498    3.8112 C   0  0  0  0  0  0  0  0  0  0  0  0
   -1.2483   -0.0717    2.4233 C   0  0  0  0  0  0  0  0  0  0  0  0
    0.0000    0.0000    1.7899 C   0  0  0  0  0  0  0  0  0  0  0  0
    1.1942    0.0000    2.5467 C   0  0  0  0  0  0  0  0  0  0  0  0
    1.0852   -0.0339    3.9500 C   0  0  0  0  0  0  0  0  0  0  0  0
    2.3042    0.0085    4.8492 C   0  0  0  0  0  0  0  0  0  0  0  0
    3.0407   -0.9479    4.9599 O   0  0  0  0  0  0  0  0  0  0  0  0
    2.5368    1.3088    5.5809 C   0  0  0  0  0  0  0  0  0  0  0  0
    2.5387    0.0520    1.8703 C   0  0  0  0  0  0  0  0  0  0  0  0
    0.0000    0.0000    0.0000 S   0  0  0  0  0  0  0  0  0  0  0  0
   -0.1433   -2.3185    8.5021 H   0  0  0  0  0  0  0  0  0  0  0  0
   -1.0136   -0.7613    8.3891 H   0  0  0  0  0  0  0  0  0  0  0  0
    0.7700   -0.7938    8.3328 H   0  0  0  0  0  0  0  0  0  0  0  0
   -1.0912   -2.0319    6.2010 H   0  0  0  0  0  0  0  0  0  0  0  0
    0.6913   -2.0132    6.1399 H   0  0  0  0  0  0  0  0  0  0  0  0
   -2.3032   -0.2114    4.3165 H   0  0  0  0  0  0  0  0  0  0  0  0
   -2.1555   -0.0582    1.8158 H   0  0  0  0  0  0  0  0  0  0  0  0
    3.4217    1.2259    6.2260 H   0  0  0  0  0  0  0  0  0  0  0  0
    2.6764    2.1224    4.8494 H   0  0  0  0  0  0  0  0  0  0  0  0
    1.6437    1.5539    6.1757 H   0  0  0  0  0  0  0  0  0  0  0  0
    2.7573    1.0647    1.4864 H   0  0  0  0  0  0  0  0  0  0  0  0
    2.5540   -0.6257    1.0030 H   0  0  0  0  0  0  0  0  0  0  0  0
    3.3488   -0.2374    2.5499 H   0  0  0  0  0  0  0  0  0  0  0  0
    0.9273    0.9680   -0.1825 H   0  0  0  0  0  0  0  0  0  0  0  0
  1 17  1  0  0  0  0
  1 16  1  0  0  0  0
  1 15  1  0  0  0  0
  2  1  1  0  0  0  0
  3  2  1  0  0  0  0
  4  3  1  0  0  0  0
  5 20  1  0  0  0  0
  5  4  2  0  0  0  0
  6  5  1  0  0  0  0
  7  6  2  0  0  0  0
  7  8  1  0  0  0  0
  8  9  2  0  0  0  0
  9  4  1  0  0  0  0
  9 10  1  0  0  0  0
 10 11  2  0  0  0  0
 10 12  1  0  0  0  0
 12 24  1  0  0  0  0
 12 22  1  0  0  0  0
 13  8  1  0  0  0  0
 13 27  1  0  0  0  0
 14  7  1  0  0  0  0
 18  2  1  0  0  0  0
 19  2  1  0  0  0  0
 21  6  1  0  0  0  0
 23 12  1  0  0  0  0
 25 13  1  0  0  0  0
 26 13  1  0  0  0  0
 28 14  1  0  0  0  0
M  END
