313373027.xyz
 OpenBabel08132112103D
CCOc1cc(S)c(cc1C(=O)OC)[N+](=O)[O-]
 28 28  0  0  0  0  0  0  0  0999 V2000
   -5.0744   -0.0013    4.3703 C   0  0  0  0  0  0  0  0  0  0  0  0
   -3.8725   -0.0010    3.4495 C   0  0  0  0  0  0  0  0  0  0  0  0
   -2.7066   -0.0010    4.2682 O   0  0  0  0  0  0  0  0  0  0  0  0
   -1.4865   -0.0008    3.7272 C   0  0  0  0  0  0  0  0  0  0  0  0
   -1.2792   -0.0004    2.3427 C   0  0  0  0  0  0  0  0  0  0  0  0
    0.0000    0.0000    1.7583 C   0  0  0  0  0  0  0  0  0  0  0  0
    0.0000    0.0000    0.0000 S   0  0  0  0  0  0  0  0  0  0  0  0
    1.1138   -0.0000    2.6380 C   0  0  0  0  0  0  0  0  0  0  0  0
    0.9070   -0.0005    4.0209 C   0  0  0  0  0  0  0  0  0  0  0  0
   -0.3563   -0.0010    4.5981 C   0  0  0  0  0  0  0  0  0  0  0  0
   -0.3774   -0.0015    6.0936 C   0  0  0  0  0  0  0  0  0  0  0  0
    0.6321    0.0002    6.7629 O   0  0  0  0  0  0  0  0  0  0  0  0
   -1.6044   -0.0045    6.6304 O   0  0  0  0  0  0  0  0  0  0  0  0
   -1.6562   -0.0052    8.0554 C   0  0  0  0  0  0  0  0  0  0  0  0
    2.5154    0.0004    2.2083 N   0  0  0  0  0  0  0  0  0  0  0  0
    3.3761   -0.0020    3.0699 O   0  0  0  0  0  0  0  0  0  0  0  0
    2.7808    0.0033    1.0043 O   0  0  0  0  0  0  0  0  0  0  0  0
   -5.0668    0.8902    5.0148 H   0  0  0  0  0  0  0  0  0  0  0  0
   -5.0665   -0.8930    5.0146 H   0  0  0  0  0  0  0  0  0  0  0  0
   -6.0034   -0.0014    3.7804 H   0  0  0  0  0  0  0  0  0  0  0  0
   -3.8685    0.8917    2.7986 H   0  0  0  0  0  0  0  0  0  0  0  0
   -3.8683   -0.8935    2.7983 H   0  0  0  0  0  0  0  0  0  0  0  0
   -2.1350   -0.0003    1.6702 H   0  0  0  0  0  0  0  0  0  0  0  0
    1.3516    0.0018   -0.1115 H   0  0  0  0  0  0  0  0  0  0  0  0
    1.7724   -0.0005    4.6811 H   0  0  0  0  0  0  0  0  0  0  0  0
   -2.7207   -0.0073    8.3195 H   0  0  0  0  0  0  0  0  0  0  0  0
   -1.1568   -0.8961    8.4650 H   0  0  0  0  0  0  0  0  0  0  0  0
   -1.1601    0.8872    8.4659 H   0  0  0  0  0  0  0  0  0  0  0  0
  1 19  1  0  0  0  0
  1 18  1  0  0  0  0
  2  3  1  0  0  0  0
  2  1  1  0  0  0  0
  4  3  1  0  0  0  0
  4 10  2  0  0  0  0
  5  4  1  0  0  0  0
  6  5  2  0  0  0  0
  6  8  1  0  0  0  0
  7  6  1  0  0  0  0
  8  9  2  0  0  0  0
  9 10  1  0  0  0  0
  9 25  1  0  0  0  0
 10 11  1  0  0  0  0
 11 13  1  0  0  0  0
 11 12  2  0  0  0  0
 13 14  1  0  0  0  0
 14 26  1  0  0  0  0
 14 27  1  0  0  0  0
 14 28  1  0  0  0  0
 15  8  1  0  0  0  0
 15 16  2  0  0  0  0
 17 15  2  0  0  0  0
 20  1  1  0  0  0  0
 21  2  1  0  0  0  0
 22  2  1  0  0  0  0
 23  5  1  0  0  0  0
 24  7  1  0  0  0  0
M  END
