313396947.xyz
 OpenBabel08132112103D
CCOC(=O)c1cc(OC(F)F)cc(c1F)S
 26 26  0  0  0  0  0  0  0  0999 V2000
   -3.8465    1.3390    7.1544 C   0  0  0  0  0  0  0  0  0  0  0  0
   -3.3282   -0.0679    6.9153 C   0  0  0  0  0  0  0  0  0  0  0  0
   -2.1901   -0.0700    6.0353 O   0  0  0  0  0  0  0  0  0  0  0  0
   -2.4389   -0.0320    4.7118 C   0  0  0  0  0  0  0  0  0  0  0  0
   -3.5502   -0.0135    4.2424 O   0  0  0  0  0  0  0  0  0  0  0  0
   -1.1647   -0.0184    3.9245 C   0  0  0  0  0  0  0  0  0  0  0  0
    0.0752   -0.0008    4.5790 C   0  0  0  0  0  0  0  0  0  0  0  0
    1.2564    0.0125    3.8415 C   0  0  0  0  0  0  0  0  0  0  0  0
    2.4312    0.0072    4.5625 O   0  0  0  0  0  0  0  0  0  0  0  0
    3.5183    0.6658    4.0590 C   0  0  0  0  0  0  0  0  0  0  0  0
    4.1627   -0.1004    3.1398 F   0  0  0  0  0  0  0  0  0  0  0  0
    4.3610    0.8725    5.0743 F   0  0  0  0  0  0  0  0  0  0  0  0
    1.2299   -0.0000    2.4446 C   0  0  0  0  0  0  0  0  0  0  0  0
   -0.0000   -0.0000    1.7715 C   0  0  0  0  0  0  0  0  0  0  0  0
   -1.1860   -0.0094    2.5210 C   0  0  0  0  0  0  0  0  0  0  0  0
   -2.3442   -0.0183    1.8557 F   0  0  0  0  0  0  0  0  0  0  0  0
    0.0000    0.0000    0.0000 S   0  0  0  0  0  0  0  0  0  0  0  0
   -3.0490    1.9897    7.5451 H   0  0  0  0  0  0  0  0  0  0  0  0
   -4.2362    1.7727    6.2222 H   0  0  0  0  0  0  0  0  0  0  0  0
   -4.6653    1.3158    7.8909 H   0  0  0  0  0  0  0  0  0  0  0  0
   -2.9596   -0.5248    7.8444 H   0  0  0  0  0  0  0  0  0  0  0  0
   -4.1115   -0.7080    6.4835 H   0  0  0  0  0  0  0  0  0  0  0  0
    0.1164    0.0030    5.6658 H   0  0  0  0  0  0  0  0  0  0  0  0
    3.2486    1.6251    3.5798 H   0  0  0  0  0  0  0  0  0  0  0  0
    2.1575   -0.0372    1.8733 H   0  0  0  0  0  0  0  0  0  0  0  0
   -1.3417   -0.0471   -0.1411 H   0  0  0  0  0  0  0  0  0  0  0  0
  1 18  1  0  0  0  0
  1 20  1  0  0  0  0
  2  1  1  0  0  0  0
  2 21  1  0  0  0  0
  3  2  1  0  0  0  0
  4  3  1  0  0  0  0
  5  4  2  0  0  0  0
  6  7  1  0  0  0  0
  6  4  1  0  0  0  0
  7 23  1  0  0  0  0
  8  9  1  0  0  0  0
  8  7  2  0  0  0  0
 10  9  1  0  0  0  0
 10 12  1  0  0  0  0
 11 10  1  0  0  0  0
 13  8  1  0  0  0  0
 14 13  2  0  0  0  0
 14 15  1  0  0  0  0
 15  6  2  0  0  0  0
 16 15  1  0  0  0  0
 17 14  1  0  0  0  0
 19  1  1  0  0  0  0
 22  2  1  0  0  0  0
 24 10  1  0  0  0  0
 25 13  1  0  0  0  0
 26 17  1  0  0  0  0
M  END
