313311229.xyz
 OpenBabel08132112103D
CC(=O)c1ccc(c(c1C(F)(F)F)I)S
 21 21  0  0  0  0  0  0  0  0999 V2000
    0.1411    1.5500    6.7230 C   0  0  0  0  0  0  0  0  0  0  0  0
    0.6769    0.3030    6.0473 C   0  0  0  0  0  0  0  0  0  0  0  0
    1.4845   -0.4196    6.5842 O   0  0  0  0  0  0  0  0  0  0  0  0
    0.3381    0.1018    4.5801 C   0  0  0  0  0  0  0  0  0  0  0  0
    1.4461    0.0606    3.7225 C   0  0  0  0  0  0  0  0  0  0  0  0
    1.2824    0.0000    2.3506 C   0  0  0  0  0  0  0  0  0  0  0  0
   -0.0000   -0.0000    1.7689 C   0  0  0  0  0  0  0  0  0  0  0  0
   -1.1222    0.0041    2.6265 C   0  0  0  0  0  0  0  0  0  0  0  0
   -0.9544    0.0092    4.0304 C   0  0  0  0  0  0  0  0  0  0  0  0
   -2.1425   -0.1588    4.9693 C   0  0  0  0  0  0  0  0  0  0  0  0
   -1.7452   -0.4626    6.2186 F   0  0  0  0  0  0  0  0  0  0  0  0
   -2.9509   -1.1545    4.5875 F   0  0  0  0  0  0  0  0  0  0  0  0
   -2.8832    0.9621    5.0549 F   0  0  0  0  0  0  0  0  0  0  0  0
   -3.0763    0.0941    1.7571 I   0  0  0  0  0  0  0  0  0  0  0  0
    0.0000    0.0000    0.0000 S   0  0  0  0  0  0  0  0  0  0  0  0
    0.8793    2.3515    6.5459 H   0  0  0  0  0  0  0  0  0  0  0  0
   -0.8212    1.8918    6.3235 H   0  0  0  0  0  0  0  0  0  0  0  0
    0.0749    1.3832    7.8066 H   0  0  0  0  0  0  0  0  0  0  0  0
    2.4461    0.0815    4.1585 H   0  0  0  0  0  0  0  0  0  0  0  0
    2.1581   -0.0339    1.6983 H   0  0  0  0  0  0  0  0  0  0  0  0
   -1.3366   -0.1257   -0.1666 H   0  0  0  0  0  0  0  0  0  0  0  0
  1 18  1  0  0  0  0
  2  3  2  0  0  0  0
  2  1  1  0  0  0  0
  4  2  1  0  0  0  0
  5 19  1  0  0  0  0
  5  4  2  0  0  0  0
  6  5  1  0  0  0  0
  7  6  2  0  0  0  0
  7  8  1  0  0  0  0
  8  9  2  0  0  0  0
  9  4  1  0  0  0  0
  9 10  1  0  0  0  0
 10 13  1  0  0  0  0
 10 11  1  0  0  0  0
 12 10  1  0  0  0  0
 14  8  1  0  0  0  0
 15  7  1  0  0  0  0
 16  1  1  0  0  0  0
 17  1  1  0  0  0  0
 20  6  1  0  0  0  0
 21 15  1  0  0  0  0
M  END
