313365366.xyz
 OpenBabel08132112103D
COC(=O)c1c(S)ccc(c1F)OC
 23 23  0  0  0  0  0  0  0  0999 V2000
   -4.1314   -0.7653    0.5512 C   0  0  0  0  0  0  0  0  0  0  0  0
   -2.8448   -0.8143    1.1736 O   0  0  0  0  0  0  0  0  0  0  0  0
   -2.5523    0.2163    1.9952 C   0  0  0  0  0  0  0  0  0  0  0  0
   -3.3230    1.1082    2.2338 O   0  0  0  0  0  0  0  0  0  0  0  0
   -1.1731    0.1016    2.5730 C   0  0  0  0  0  0  0  0  0  0  0  0
   -0.0000   -0.0000    1.7857 C   0  0  0  0  0  0  0  0  0  0  0  0
    0.0000    0.0000    0.0000 S   0  0  0  0  0  0  0  0  0  0  0  0
    1.2416   -0.0000    2.4255 C   0  0  0  0  0  0  0  0  0  0  0  0
    1.3465    0.0903    3.8172 C   0  0  0  0  0  0  0  0  0  0  0  0
    0.1982    0.1664    4.6100 C   0  0  0  0  0  0  0  0  0  0  0  0
   -1.0510    0.1688    3.9595 C   0  0  0  0  0  0  0  0  0  0  0  0
   -2.1462    0.2264    4.7186 F   0  0  0  0  0  0  0  0  0  0  0  0
    0.1677    0.2313    5.9581 O   0  0  0  0  0  0  0  0  0  0  0  0
    1.3910    0.2395    6.6591 C   0  0  0  0  0  0  0  0  0  0  0  0
   -4.2220    0.1309   -0.0807 H   0  0  0  0  0  0  0  0  0  0  0  0
   -4.9267   -0.7396    1.3102 H   0  0  0  0  0  0  0  0  0  0  0  0
   -4.2101   -1.6745   -0.0568 H   0  0  0  0  0  0  0  0  0  0  0  0
   -1.0729   -0.8060   -0.1515 H   0  0  0  0  0  0  0  0  0  0  0  0
    2.1488   -0.0803    1.8242 H   0  0  0  0  0  0  0  0  0  0  0  0
    2.3343    0.0832    4.2769 H   0  0  0  0  0  0  0  0  0  0  0  0
    1.1387    0.3015    7.7255 H   0  0  0  0  0  0  0  0  0  0  0  0
    2.0127    1.1105    6.3846 H   0  0  0  0  0  0  0  0  0  0  0  0
    1.9710   -0.6835    6.4790 H   0  0  0  0  0  0  0  0  0  0  0  0
  1  2  1  0  0  0  0
  1 16  1  0  0  0  0
  2  3  1  0  0  0  0
  3  4  2  0  0  0  0
  3  5  1  0  0  0  0
  5 11  2  0  0  0  0
  6  8  2  0  0  0  0
  6  5  1  0  0  0  0
  7  6  1  0  0  0  0
  8  9  1  0  0  0  0
  9 20  1  0  0  0  0
  9 10  2  0  0  0  0
 10 13  1  0  0  0  0
 11 10  1  0  0  0  0
 11 12  1  0  0  0  0
 13 14  1  0  0  0  0
 14 21  1  0  0  0  0
 15  1  1  0  0  0  0
 17  1  1  0  0  0  0
 18  7  1  0  0  0  0
 19  8  1  0  0  0  0
 22 14  1  0  0  0  0
 23 14  1  0  0  0  0
M  END
