313328003.xyz
 OpenBabel08132112103D
COC(=O)Cc1ccc(c(c1I)OC(F)(F)F)S
 26 26  0  0  0  0  0  0  0  0999 V2000
    0.4860    2.6914    8.6130 C   0  0  0  0  0  0  0  0  0  0  0  0
    0.2680    1.4354    7.9699 O   0  0  0  0  0  0  0  0  0  0  0  0
   -0.0535    1.4906    6.6672 C   0  0  0  0  0  0  0  0  0  0  0  0
   -0.1718    2.5153    6.0465 O   0  0  0  0  0  0  0  0  0  0  0  0
   -0.2843    0.0918    6.1111 C   0  0  0  0  0  0  0  0  0  0  0  0
   -0.1565    0.0310    4.6137 C   0  0  0  0  0  0  0  0  0  0  0  0
   -1.3075   -0.0009    3.8139 C   0  0  0  0  0  0  0  0  0  0  0  0
   -1.2403   -0.0027    2.4265 C   0  0  0  0  0  0  0  0  0  0  0  0
    0.0000   -0.0000    1.7717 C   0  0  0  0  0  0  0  0  0  0  0  0
    1.1654   -0.0000    2.5579 C   0  0  0  0  0  0  0  0  0  0  0  0
    1.0848    0.0472    3.9579 C   0  0  0  0  0  0  0  0  0  0  0  0
    2.8843    0.1978    5.0797 I   0  0  0  0  0  0  0  0  0  0  0  0
    2.4068    0.0470    1.9338 O   0  0  0  0  0  0  0  0  0  0  0  0
    3.0953   -1.0952    1.6516 C   0  0  0  0  0  0  0  0  0  0  0  0
    2.9383   -1.4427    0.3647 F   0  0  0  0  0  0  0  0  0  0  0  0
    4.3877   -0.8704    1.8503 F   0  0  0  0  0  0  0  0  0  0  0  0
    2.7071   -2.1271    2.3989 F   0  0  0  0  0  0  0  0  0  0  0  0
    0.0000    0.0000    0.0000 S   0  0  0  0  0  0  0  0  0  0  0  0
    0.7294    2.4626    9.6576 H   0  0  0  0  0  0  0  0  0  0  0  0
    1.3173    3.2309    8.1348 H   0  0  0  0  0  0  0  0  0  0  0  0
   -0.4145    3.3214    8.5576 H   0  0  0  0  0  0  0  0  0  0  0  0
    0.4030   -0.6019    6.6155 H   0  0  0  0  0  0  0  0  0  0  0  0
   -1.3038   -0.2016    6.4104 H   0  0  0  0  0  0  0  0  0  0  0  0
   -2.2853   -0.0010    4.3007 H   0  0  0  0  0  0  0  0  0  0  0  0
   -2.1575    0.0034    1.8343 H   0  0  0  0  0  0  0  0  0  0  0  0
    1.3108    0.2750   -0.1580 H   0  0  0  0  0  0  0  0  0  0  0  0
  1 19  1  0  0  0  0
  2  1  1  0  0  0  0
  3  2  1  0  0  0  0
  4  3  2  0  0  0  0
  5 23  1  0  0  0  0
  5 22  1  0  0  0  0
  5  3  1  0  0  0  0
  6  5  1  0  0  0  0
  7 24  1  0  0  0  0
  7  6  2  0  0  0  0
  8  7  1  0  0  0  0
  9  8  2  0  0  0  0
  9 10  1  0  0  0  0
 10 11  2  0  0  0  0
 11  6  1  0  0  0  0
 11 12  1  0  0  0  0
 13 10  1  0  0  0  0
 14 16  1  0  0  0  0
 14 13  1  0  0  0  0
 14 17  1  0  0  0  0
 15 14  1  0  0  0  0
 18  9  1  0  0  0  0
 20  1  1  0  0  0  0
 21  1  1  0  0  0  0
 25  8  1  0  0  0  0
 26 18  1  0  0  0  0
M  END
