313368689.xyz
 OpenBabel08132112103D
COC(=O)c1c(F)cc(cc1S)OC(F)(F)F
 23 23  0  0  0  0  0  0  0  0999 V2000
    4.7837    0.6109    2.3925 C   0  0  0  0  0  0  0  0  0  0  0  0
    3.4368    0.5555    2.8634 O   0  0  0  0  0  0  0  0  0  0  0  0
    2.5352    0.0401    2.0254 C   0  0  0  0  0  0  0  0  0  0  0  0
    2.8405   -0.3226    0.9027 O   0  0  0  0  0  0  0  0  0  0  0  0
    1.1593    0.0000    2.5943 C   0  0  0  0  0  0  0  0  0  0  0  0
    0.9418   -0.0270    3.9911 C   0  0  0  0  0  0  0  0  0  0  0  0
    1.9732   -0.1015    4.8310 F   0  0  0  0  0  0  0  0  0  0  0  0
   -0.3180   -0.0066    4.5651 C   0  0  0  0  0  0  0  0  0  0  0  0
   -1.4298    0.0368    3.7225 C   0  0  0  0  0  0  0  0  0  0  0  0
   -1.2848    0.0313    2.3404 C   0  0  0  0  0  0  0  0  0  0  0  0
    0.0000    0.0000    1.7667 C   0  0  0  0  0  0  0  0  0  0  0  0
    0.0000    0.0000    0.0000 S   0  0  0  0  0  0  0  0  0  0  0  0
   -2.6423    0.0585    4.3825 O   0  0  0  0  0  0  0  0  0  0  0  0
   -3.8246    0.1799    3.7310 C   0  0  0  0  0  0  0  0  0  0  0  0
   -4.7788    0.2125    4.6472 F   0  0  0  0  0  0  0  0  0  0  0  0
   -4.0578   -0.8505    2.9071 F   0  0  0  0  0  0  0  0  0  0  0  0
   -3.8880    1.3010    3.0025 F   0  0  0  0  0  0  0  0  0  0  0  0
    5.1491   -0.3952    2.1390 H   0  0  0  0  0  0  0  0  0  0  0  0
    4.8562    1.2450    1.4965 H   0  0  0  0  0  0  0  0  0  0  0  0
    5.3710    1.0373    3.2141 H   0  0  0  0  0  0  0  0  0  0  0  0
   -0.4315   -0.0325    5.6477 H   0  0  0  0  0  0  0  0  0  0  0  0
   -2.1498    0.0313    1.6808 H   0  0  0  0  0  0  0  0  0  0  0  0
    1.3243   -0.2778   -0.1245 H   0  0  0  0  0  0  0  0  0  0  0  0
  1  2  1  0  0  0  0
  1 20  1  0  0  0  0
  3  5  1  0  0  0  0
  3  2  1  0  0  0  0
  4  3  2  0  0  0  0
  5  6  2  0  0  0  0
  6  8  1  0  0  0  0
  6  7  1  0  0  0  0
  8 21  1  0  0  0  0
  9 13  1  0  0  0  0
  9  8  2  0  0  0  0
 10  9  1  0  0  0  0
 11 10  2  0  0  0  0
 11  5  1  0  0  0  0
 12 11  1  0  0  0  0
 14 13  1  0  0  0  0
 14 15  1  0  0  0  0
 16 14  1  0  0  0  0
 17 14  1  0  0  0  0
 18  1  1  0  0  0  0
 19  1  1  0  0  0  0
 22 10  1  0  0  0  0
 23 12  1  0  0  0  0
M  END
