313346110.xyz
 OpenBabel08132112103D
COC(=O)c1cc(S)c(cc1Br)C(F)(F)F
 22 22  0  0  0  0  0  0  0  0999 V2000
    4.0096    0.4687    6.3188 C   0  0  0  0  0  0  0  0  0  0  0  0
    2.7111    0.4435    5.7259 O   0  0  0  0  0  0  0  0  0  0  0  0
    2.6434    0.0301    4.4609 C   0  0  0  0  0  0  0  0  0  0  0  0
    3.6137   -0.2768    3.8066 O   0  0  0  0  0  0  0  0  0  0  0  0
    1.2481    0.0229    3.8986 C   0  0  0  0  0  0  0  0  0  0  0  0
    1.1977    0.0000    2.4972 C   0  0  0  0  0  0  0  0  0  0  0  0
    0.0000   -0.0000    1.7771 C   0  0  0  0  0  0  0  0  0  0  0  0
    0.0000    0.0000    0.0000 S   0  0  0  0  0  0  0  0  0  0  0  0
   -1.2068    0.0172    2.5111 C   0  0  0  0  0  0  0  0  0  0  0  0
   -1.1734    0.0292    3.9046 C   0  0  0  0  0  0  0  0  0  0  0  0
    0.0333    0.0323    4.6106 C   0  0  0  0  0  0  0  0  0  0  0  0
   -0.1188   -0.0113    6.5068 Br  0  0  0  0  0  0  0  0  0  0  0  0
   -2.5515   -0.0230    1.8179 C   0  0  0  0  0  0  0  0  0  0  0  0
   -3.5657    0.1443    2.6801 F   0  0  0  0  0  0  0  0  0  0  0  0
   -2.6533    0.9425    0.8873 F   0  0  0  0  0  0  0  0  0  0  0  0
   -2.7462   -1.1966    1.1943 F   0  0  0  0  0  0  0  0  0  0  0  0
    4.4643   -0.5327    6.2985 H   0  0  0  0  0  0  0  0  0  0  0  0
    3.8622    0.8041    7.3520 H   0  0  0  0  0  0  0  0  0  0  0  0
    4.6687    1.1632    5.7771 H   0  0  0  0  0  0  0  0  0  0  0  0
    2.1564   -0.0187    1.9773 H   0  0  0  0  0  0  0  0  0  0  0  0
    1.3224   -0.2509   -0.1182 H   0  0  0  0  0  0  0  0  0  0  0  0
   -2.1117    0.0284    4.4566 H   0  0  0  0  0  0  0  0  0  0  0  0
  1 18  1  0  0  0  0
  2  1  1  0  0  0  0
  3  2  1  0  0  0  0
  4  3  2  0  0  0  0
  5  3  1  0  0  0  0
  5 11  2  0  0  0  0
  6  5  1  0  0  0  0
  7  6  2  0  0  0  0
  7  9  1  0  0  0  0
  8  7  1  0  0  0  0
  9 10  2  0  0  0  0
 10 22  1  0  0  0  0
 10 11  1  0  0  0  0
 11 12  1  0  0  0  0
 13  9  1  0  0  0  0
 13 14  1  0  0  0  0
 15 13  1  0  0  0  0
 16 13  1  0  0  0  0
 17  1  1  0  0  0  0
 19  1  1  0  0  0  0
 20  6  1  0  0  0  0
 21  8  1  0  0  0  0
M  END
