313334287.xyz
 OpenBabel08132112103D
BrCC(=O)c1ccc(c(c1[N+](=O)[O-])S)I
 20 20  0  0  0  0  0  0  0  0999 V2000
    2.0527    2.2693    6.2789 Br  0  0  0  0  0  0  0  0  0  0  0  0
    2.4063    0.3424    6.2094 C   0  0  0  0  0  0  0  0  0  0  0  0
    2.3726   -0.1776    4.7810 C   0  0  0  0  0  0  0  0  0  0  0  0
    3.3368   -0.7497    4.3265 O   0  0  0  0  0  0  0  0  0  0  0  0
    1.1134   -0.0078    3.9795 C   0  0  0  0  0  0  0  0  0  0  0  0
   -0.1362    0.0342    4.6046 C   0  0  0  0  0  0  0  0  0  0  0  0
   -1.3039    0.0766    3.8461 C   0  0  0  0  0  0  0  0  0  0  0  0
   -1.2389    0.0569    2.4540 C   0  0  0  0  0  0  0  0  0  0  0  0
    0.0000   -0.0000    1.7703 C   0  0  0  0  0  0  0  0  0  0  0  0
    1.1565    0.0000    2.5752 C   0  0  0  0  0  0  0  0  0  0  0  0
    2.4833    0.1318    1.9268 N   0  0  0  0  0  0  0  0  0  0  0  0
    2.8161   -0.7346    1.1328 O   0  0  0  0  0  0  0  0  0  0  0  0
    3.1221    1.1248    2.2014 O   0  0  0  0  0  0  0  0  0  0  0  0
    0.0000    0.0000    0.0000 S   0  0  0  0  0  0  0  0  0  0  0  0
   -3.0656    0.1378    1.3840 I   0  0  0  0  0  0  0  0  0  0  0  0
    3.4101    0.1713    6.6112 H   0  0  0  0  0  0  0  0  0  0  0  0
    1.6573   -0.1441    6.8478 H   0  0  0  0  0  0  0  0  0  0  0  0
   -0.2096    0.0304    5.6916 H   0  0  0  0  0  0  0  0  0  0  0  0
   -2.2740    0.1160    4.3423 H   0  0  0  0  0  0  0  0  0  0  0  0
    1.2642   -0.4659   -0.1290 H   0  0  0  0  0  0  0  0  0  0  0  0
  2  1  1  0  0  0  0
  2 16  1  0  0  0  0
  2 17  1  0  0  0  0
  3  2  1  0  0  0  0
  4  3  2  0  0  0  0
  5  6  1  0  0  0  0
  5  3  1  0  0  0  0
  6 18  1  0  0  0  0
  7 19  1  0  0  0  0
  7  6  2  0  0  0  0
  8  7  1  0  0  0  0
  9  8  2  0  0  0  0
  9 10  1  0  0  0  0
 10  5  2  0  0  0  0
 11 13  2  0  0  0  0
 11 10  1  0  0  0  0
 12 11  2  0  0  0  0
 14  9  1  0  0  0  0
 15  8  1  0  0  0  0
 20 14  1  0  0  0  0
M  END
