313384984.xyz
 OpenBabel08132112103D
COC(=O)c1cc(S)cc(c1Br)OC(F)F
 23 23  0  0  0  0  0  0  0  0999 V2000
    4.7470    0.3169    4.5115 C   0  0  0  0  0  0  0  0  0  0  0  0
    3.4517    0.3670    3.9148 O   0  0  0  0  0  0  0  0  0  0  0  0
    2.4332   -0.0648    4.6864 C   0  0  0  0  0  0  0  0  0  0  0  0
    2.5895   -0.4530    5.8161 O   0  0  0  0  0  0  0  0  0  0  0  0
    1.1293   -0.0137    3.9442 C   0  0  0  0  0  0  0  0  0  0  0  0
    1.1689   -0.0000    2.5408 C   0  0  0  0  0  0  0  0  0  0  0  0
    0.0000   -0.0000    1.7740 C   0  0  0  0  0  0  0  0  0  0  0  0
    0.0000    0.0000    0.0000 S   0  0  0  0  0  0  0  0  0  0  0  0
   -1.2372    0.0032    2.4307 C   0  0  0  0  0  0  0  0  0  0  0  0
   -1.2914    0.0091    3.8218 C   0  0  0  0  0  0  0  0  0  0  0  0
   -0.1189   -0.0099    4.5997 C   0  0  0  0  0  0  0  0  0  0  0  0
   -0.3225    0.0201    6.4848 Br  0  0  0  0  0  0  0  0  0  0  0  0
   -2.5266    0.0770    4.4266 O   0  0  0  0  0  0  0  0  0  0  0  0
   -3.1484   -1.1203    4.6918 C   0  0  0  0  0  0  0  0  0  0  0  0
   -4.1928   -0.8516    5.4761 F   0  0  0  0  0  0  0  0  0  0  0  0
   -3.6153   -1.6678    3.5409 F   0  0  0  0  0  0  0  0  0  0  0  0
    5.0100   -0.7154    4.7875 H   0  0  0  0  0  0  0  0  0  0  0  0
    4.7801    0.9374    5.4193 H   0  0  0  0  0  0  0  0  0  0  0  0
    5.4445    0.7024    3.7584 H   0  0  0  0  0  0  0  0  0  0  0  0
    2.1460    0.0071    2.0604 H   0  0  0  0  0  0  0  0  0  0  0  0
    1.3425    0.0085   -0.1520 H   0  0  0  0  0  0  0  0  0  0  0  0
   -2.1796    0.0091    1.8816 H   0  0  0  0  0  0  0  0  0  0  0  0
   -2.4777   -1.8509    5.1766 H   0  0  0  0  0  0  0  0  0  0  0  0
  1 17  1  0  0  0  0
  1 18  1  0  0  0  0
  2  1  1  0  0  0  0
  2  3  1  0  0  0  0
  3  4  2  0  0  0  0
  5 11  1  0  0  0  0
  5  3  1  0  0  0  0
  6  5  2  0  0  0  0
  7  9  2  0  0  0  0
  7  6  1  0  0  0  0
  8  7  1  0  0  0  0
  9 10  1  0  0  0  0
 10 13  1  0  0  0  0
 10 11  2  0  0  0  0
 11 12  1  0  0  0  0
 13 14  1  0  0  0  0
 14 23  1  0  0  0  0
 14 15  1  0  0  0  0
 16 14  1  0  0  0  0
 19  1  1  0  0  0  0
 20  6  1  0  0  0  0
 21  8  1  0  0  0  0
 22  9  1  0  0  0  0
M  END
