313327594.xyz
 OpenBabel08132112103D
Fc1cc(OC(F)(F)F)c(c(c1)S)C
 20 20  0  0  0  0  0  0  0  0999 V2000
   -2.5272   -0.1899    4.3785 F   0  0  0  0  0  0  0  0  0  0  0  0
   -1.3274   -0.1244    3.7902 C   0  0  0  0  0  0  0  0  0  0  0  0
   -0.1858   -0.1025    4.5821 C   0  0  0  0  0  0  0  0  0  0  0  0
    1.0474   -0.0294    3.9367 C   0  0  0  0  0  0  0  0  0  0  0  0
    2.2012   -0.0533    4.7261 O   0  0  0  0  0  0  0  0  0  0  0  0
    2.6264    1.1120    5.2631 C   0  0  0  0  0  0  0  0  0  0  0  0
    3.7772    0.8815    5.8779 F   0  0  0  0  0  0  0  0  0  0  0  0
    1.7565    1.6096    6.1548 F   0  0  0  0  0  0  0  0  0  0  0  0
    2.8166    2.0586    4.3306 F   0  0  0  0  0  0  0  0  0  0  0  0
    1.1932    0.0000    2.5418 C   0  0  0  0  0  0  0  0  0  0  0  0
    0.0000   -0.0000    1.7832 C   0  0  0  0  0  0  0  0  0  0  0  0
   -1.2554   -0.0612    2.4039 C   0  0  0  0  0  0  0  0  0  0  0  0
    0.0000    0.0000    0.0000 S   0  0  0  0  0  0  0  0  0  0  0  0
    2.5533    0.0187    1.9027 C   0  0  0  0  0  0  0  0  0  0  0  0
   -0.2519   -0.1391    5.6682 H   0  0  0  0  0  0  0  0  0  0  0  0
   -2.1757   -0.0465    1.8186 H   0  0  0  0  0  0  0  0  0  0  0  0
    1.0789    0.7937   -0.1770 H   0  0  0  0  0  0  0  0  0  0  0  0
    2.8156    1.0283    1.5412 H   0  0  0  0  0  0  0  0  0  0  0  0
    3.3284   -0.2847    2.6165 H   0  0  0  0  0  0  0  0  0  0  0  0
    2.5803   -0.6616    1.0382 H   0  0  0  0  0  0  0  0  0  0  0  0
  2  1  1  0  0  0  0
  2  3  2  0  0  0  0
  3 15  1  0  0  0  0
  4  3  1  0  0  0  0
  4  5  1  0  0  0  0
  5  6  1  0  0  0  0
  6  7  1  0  0  0  0
  6  8  1  0  0  0  0
  9  6  1  0  0  0  0
 10  4  2  0  0  0  0
 11 12  2  0  0  0  0
 11 10  1  0  0  0  0
 12  2  1  0  0  0  0
 13 11  1  0  0  0  0
 14 10  1  0  0  0  0
 14 19  1  0  0  0  0
 16 12  1  0  0  0  0
 17 13  1  0  0  0  0
 18 14  1  0  0  0  0
 20 14  1  0  0  0  0
M  END
