313315734.xyz
 OpenBabel08132112103D
CCOC(=O)Cc1ccc(c(c1S)OC(F)(F)F)Cl
 29 29  0  0  0  0  0  0  0  0999 V2000
    2.5520    2.8844   -1.7043 C   0  0  0  0  0  0  0  0  0  0  0  0
    3.7433    2.4538   -0.8672 C   0  0  0  0  0  0  0  0  0  0  0  0
    3.4523    1.2466   -0.1372 O   0  0  0  0  0  0  0  0  0  0  0  0
    2.7935    1.3815    1.0237 C   0  0  0  0  0  0  0  0  0  0  0  0
    2.4807    2.4365    1.5141 O   0  0  0  0  0  0  0  0  0  0  0  0
    2.5255    0.0201    1.6571 C   0  0  0  0  0  0  0  0  0  0  0  0
    1.2431   -0.0000    2.4451 C   0  0  0  0  0  0  0  0  0  0  0  0
    1.2573    0.0190    3.8411 C   0  0  0  0  0  0  0  0  0  0  0  0
    0.0808    0.0416    4.5887 C   0  0  0  0  0  0  0  0  0  0  0  0
   -1.1448    0.0376    3.9258 C   0  0  0  0  0  0  0  0  0  0  0  0
   -1.1873    0.0059    2.5255 C   0  0  0  0  0  0  0  0  0  0  0  0
    0.0000    0.0000    1.7756 C   0  0  0  0  0  0  0  0  0  0  0  0
    0.0000    0.0000    0.0000 S   0  0  0  0  0  0  0  0  0  0  0  0
   -2.4107    0.0616    1.8735 O   0  0  0  0  0  0  0  0  0  0  0  0
   -3.1568   -1.0609    1.6734 C   0  0  0  0  0  0  0  0  0  0  0  0
   -3.1256   -1.4073    0.3760 F   0  0  0  0  0  0  0  0  0  0  0  0
   -4.4206   -0.8088    1.9897 F   0  0  0  0  0  0  0  0  0  0  0  0
   -2.7253   -2.1011    2.3829 F   0  0  0  0  0  0  0  0  0  0  0  0
   -2.6284    0.0799    4.8315 Cl  0  0  0  0  0  0  0  0  0  0  0  0
    2.8147    3.7695   -2.3051 H   0  0  0  0  0  0  0  0  0  0  0  0
    2.2432    2.0785   -2.3874 H   0  0  0  0  0  0  0  0  0  0  0  0
    1.7000    3.1434   -1.0595 H   0  0  0  0  0  0  0  0  0  0  0  0
    4.6086    2.1991   -1.4953 H   0  0  0  0  0  0  0  0  0  0  0  0
    4.0316    3.2407   -0.1550 H   0  0  0  0  0  0  0  0  0  0  0  0
    3.3771   -0.1938    2.3227 H   0  0  0  0  0  0  0  0  0  0  0  0
    2.5397   -0.7467    0.8680 H   0  0  0  0  0  0  0  0  0  0  0  0
    2.2189    0.0292    4.3589 H   0  0  0  0  0  0  0  0  0  0  0  0
    0.1014    0.0670    5.6782 H   0  0  0  0  0  0  0  0  0  0  0  0
   -1.3279    0.1872   -0.1442 H   0  0  0  0  0  0  0  0  0  0  0  0
  1 22  1  0  0  0  0
  1  2  1  0  0  0  0
  2 24  1  0  0  0  0
  2  3  1  0  0  0  0
  3  4  1  0  0  0  0
  4  5  2  0  0  0  0
  4  6  1  0  0  0  0
  6 25  1  0  0  0  0
  6  7  1  0  0  0  0
  7  8  1  0  0  0  0
  8 27  1  0  0  0  0
  8  9  2  0  0  0  0
  9 28  1  0  0  0  0
 10  9  1  0  0  0  0
 10 19  1  0  0  0  0
 11 10  2  0  0  0  0
 12  7  2  0  0  0  0
 12 11  1  0  0  0  0
 13 12  1  0  0  0  0
 14 11  1  0  0  0  0
 15 14  1  0  0  0  0
 15 17  1  0  0  0  0
 15 18  1  0  0  0  0
 16 15  1  0  0  0  0
 20  1  1  0  0  0  0
 21  1  1  0  0  0  0
 23  2  1  0  0  0  0
 26  6  1  0  0  0  0
 29 13  1  0  0  0  0
M  END
