313331532.xyz
 OpenBabel08132112103D
CCOc1c(S)ccc(c1Cl)CC(=O)OC
 29 29  0  0  0  0  0  0  0  0999 V2000
   -4.3512   -1.0695    0.9749 C   0  0  0  0  0  0  0  0  0  0  0  0
   -3.0053   -1.2868    1.6286 C   0  0  0  0  0  0  0  0  0  0  0  0
   -2.4004    0.0018    1.8349 O   0  0  0  0  0  0  0  0  0  0  0  0
   -1.2102   -0.0147    2.4974 C   0  0  0  0  0  0  0  0  0  0  0  0
   -0.0000   -0.0000    1.7751 C   0  0  0  0  0  0  0  0  0  0  0  0
    0.0000    0.0000    0.0000 S   0  0  0  0  0  0  0  0  0  0  0  0
    1.2148   -0.0000    2.4713 C   0  0  0  0  0  0  0  0  0  0  0  0
    1.2273   -0.0252    3.8644 C   0  0  0  0  0  0  0  0  0  0  0  0
    0.0434   -0.0266    4.6104 C   0  0  0  0  0  0  0  0  0  0  0  0
   -1.1660   -0.0180    3.8992 C   0  0  0  0  0  0  0  0  0  0  0  0
   -2.6850   -0.0113    4.7699 Cl  0  0  0  0  0  0  0  0  0  0  0  0
    0.0584   -0.0530    6.1126 C   0  0  0  0  0  0  0  0  0  0  0  0
   -0.4112   -1.3812    6.6887 C   0  0  0  0  0  0  0  0  0  0  0  0
   -0.4367   -2.4322    6.1020 O   0  0  0  0  0  0  0  0  0  0  0  0
   -0.7714   -1.2367    7.9763 O   0  0  0  0  0  0  0  0  0  0  0  0
   -1.2049   -2.4233    8.6395 C   0  0  0  0  0  0  0  0  0  0  0  0
   -4.8526   -2.0346    0.8050 H   0  0  0  0  0  0  0  0  0  0  0  0
   -4.9916   -0.4484    1.6193 H   0  0  0  0  0  0  0  0  0  0  0  0
   -4.2400   -0.5605    0.0048 H   0  0  0  0  0  0  0  0  0  0  0  0
   -3.1135   -1.7944    2.6015 H   0  0  0  0  0  0  0  0  0  0  0  0
   -2.3386   -1.8988    0.9952 H   0  0  0  0  0  0  0  0  0  0  0  0
   -1.2961    0.3702   -0.1102 H   0  0  0  0  0  0  0  0  0  0  0  0
    2.1545    0.0206    1.9158 H   0  0  0  0  0  0  0  0  0  0  0  0
    2.1838   -0.0352    4.3921 H   0  0  0  0  0  0  0  0  0  0  0  0
   -0.5677    0.7429    6.5423 H   0  0  0  0  0  0  0  0  0  0  0  0
    1.0821    0.1148    6.4846 H   0  0  0  0  0  0  0  0  0  0  0  0
   -2.0911   -2.8443    8.1410 H   0  0  0  0  0  0  0  0  0  0  0  0
   -1.4493   -2.1289    9.6674 H   0  0  0  0  0  0  0  0  0  0  0  0
   -0.4116   -3.1861    8.6375 H   0  0  0  0  0  0  0  0  0  0  0  0
  1 18  1  0  0  0  0
  1  2  1  0  0  0  0
  2  3  1  0  0  0  0
  2 20  1  0  0  0  0
  3  4  1  0  0  0  0
  4 10  2  0  0  0  0
  5  7  2  0  0  0  0
  5  4  1  0  0  0  0
  6  5  1  0  0  0  0
  7  8  1  0  0  0  0
  8 24  1  0  0  0  0
  8  9  2  0  0  0  0
  9 12  1  0  0  0  0
 10  9  1  0  0  0  0
 10 11  1  0  0  0  0
 12 26  1  0  0  0  0
 12 25  1  0  0  0  0
 12 13  1  0  0  0  0
 13 15  1  0  0  0  0
 14 13  2  0  0  0  0
 15 16  1  0  0  0  0
 16 28  1  0  0  0  0
 17  1  1  0  0  0  0
 19  1  1  0  0  0  0
 21  2  1  0  0  0  0
 22  6  1  0  0  0  0
 23  7  1  0  0  0  0
 27 16  1  0  0  0  0
 29 16  1  0  0  0  0
M  END
