313353802.xyz
 OpenBabel08132112103D
COC(=O)Cc1cc(F)c(cc1S)Cl
 22 22  0  0  0  0  0  0  0  0999 V2000
    3.9233    2.5326   -0.6643 C   0  0  0  0  0  0  0  0  0  0  0  0
    3.5564    1.3008   -0.0423 O   0  0  0  0  0  0  0  0  0  0  0  0
    2.8336    1.4050    1.0850 C   0  0  0  0  0  0  0  0  0  0  0  0
    2.5037    2.4521    1.5782 O   0  0  0  0  0  0  0  0  0  0  0  0
    2.5317    0.0277    1.6647 C   0  0  0  0  0  0  0  0  0  0  0  0
    1.2458   -0.0000    2.4457 C   0  0  0  0  0  0  0  0  0  0  0  0
    1.2622    0.0116    3.8427 C   0  0  0  0  0  0  0  0  0  0  0  0
    0.0811    0.0167    4.5756 C   0  0  0  0  0  0  0  0  0  0  0  0
    0.1298    0.0267    5.9092 F   0  0  0  0  0  0  0  0  0  0  0  0
   -1.1519    0.0104    3.9185 C   0  0  0  0  0  0  0  0  0  0  0  0
   -1.1882    0.0007    2.5234 C   0  0  0  0  0  0  0  0  0  0  0  0
    0.0000    0.0000    1.7828 C   0  0  0  0  0  0  0  0  0  0  0  0
    0.0000    0.0000    0.0000 S   0  0  0  0  0  0  0  0  0  0  0  0
   -2.6235    0.0116    4.8424 Cl  0  0  0  0  0  0  0  0  0  0  0  0
    3.0261    3.0991   -0.9557 H   0  0  0  0  0  0  0  0  0  0  0  0
    4.5110    2.2651   -1.5507 H   0  0  0  0  0  0  0  0  0  0  0  0
    4.5204    3.1542    0.0197 H   0  0  0  0  0  0  0  0  0  0  0  0
    2.5335   -0.7084    0.8463 H   0  0  0  0  0  0  0  0  0  0  0  0
    3.3790   -0.2307    2.3202 H   0  0  0  0  0  0  0  0  0  0  0  0
    2.2081    0.0242    4.3876 H   0  0  0  0  0  0  0  0  0  0  0  0
   -2.1607   -0.0050    2.0298 H   0  0  0  0  0  0  0  0  0  0  0  0
   -1.3389    0.0967   -0.1475 H   0  0  0  0  0  0  0  0  0  0  0  0
  1  2  1  0  0  0  0
  1 17  1  0  0  0  0
  2  3  1  0  0  0  0
  3  4  2  0  0  0  0
  3  5  1  0  0  0  0
  5 19  1  0  0  0  0
  5  6  1  0  0  0  0
  6  7  1  0  0  0  0
  7 20  1  0  0  0  0
  7  8  2  0  0  0  0
  8  9  1  0  0  0  0
 10  8  1  0  0  0  0
 10 14  1  0  0  0  0
 11 10  2  0  0  0  0
 12  6  2  0  0  0  0
 12 11  1  0  0  0  0
 13 12  1  0  0  0  0
 15  1  1  0  0  0  0
 16  1  1  0  0  0  0
 18  5  1  0  0  0  0
 21 11  1  0  0  0  0
 22 13  1  0  0  0  0
M  END
