313309693.xyz
 OpenBabel08132112103D
N#CCc1c(cc(cc1S)I)OC(F)(F)F
 21 21  0  0  0  0  0  0  0  0999 V2000
    3.1859    2.2806    0.6196 N   0  0  0  0  0  0  0  0  0  0  0  0
    2.9122    1.2593    1.0910 C   0  0  0  0  0  0  0  0  0  0  0  0
    2.5527   -0.0356    1.6807 C   0  0  0  0  0  0  0  0  0  0  0  0
    1.2442   -0.0000    2.4429 C   0  0  0  0  0  0  0  0  0  0  0  0
    1.2344    0.0225    3.8430 C   0  0  0  0  0  0  0  0  0  0  0  0
    0.0593    0.0248    4.5925 C   0  0  0  0  0  0  0  0  0  0  0  0
   -1.1549    0.0250    3.9053 C   0  0  0  0  0  0  0  0  0  0  0  0
   -1.1967    0.0182    2.5116 C   0  0  0  0  0  0  0  0  0  0  0  0
   -0.0000   -0.0000    1.7776 C   0  0  0  0  0  0  0  0  0  0  0  0
    0.0000    0.0000    0.0000 S   0  0  0  0  0  0  0  0  0  0  0  0
   -2.9695    0.0346    5.0016 I   0  0  0  0  0  0  0  0  0  0  0  0
    2.4574   -0.0324    4.5095 O   0  0  0  0  0  0  0  0  0  0  0  0
    2.9474    1.1123    5.0536 C   0  0  0  0  0  0  0  0  0  0  0  0
    3.0389    2.0914    4.1475 F   0  0  0  0  0  0  0  0  0  0  0  0
    4.1536    0.8449    5.5280 F   0  0  0  0  0  0  0  0  0  0  0  0
    2.1803    1.5630    6.0552 F   0  0  0  0  0  0  0  0  0  0  0  0
    3.3656   -0.3524    2.3488 H   0  0  0  0  0  0  0  0  0  0  0  0
    2.4889   -0.7765    0.8655 H   0  0  0  0  0  0  0  0  0  0  0  0
    0.1117    0.0247    5.6795 H   0  0  0  0  0  0  0  0  0  0  0  0
   -2.1558    0.0289    1.9933 H   0  0  0  0  0  0  0  0  0  0  0  0
   -1.3168   -0.2657   -0.1413 H   0  0  0  0  0  0  0  0  0  0  0  0
  1  2  3  0  0  0  0
  2  3  1  0  0  0  0
  3 17  1  0  0  0  0
  3  4  1  0  0  0  0
  4  5  1  0  0  0  0
  5 12  1  0  0  0  0
  5  6  2  0  0  0  0
  6 19  1  0  0  0  0
  7  6  1  0  0  0  0
  7 11  1  0  0  0  0
  8  7  2  0  0  0  0
  9  4  2  0  0  0  0
  9  8  1  0  0  0  0
 10  9  1  0  0  0  0
 12 13  1  0  0  0  0
 13 15  1  0  0  0  0
 13 16  1  0  0  0  0
 14 13  1  0  0  0  0
 18  3  1  0  0  0  0
 20  8  1  0  0  0  0
 21 10  1  0  0  0  0
M  END
