313338683.xyz
 OpenBabel08132112103D
COc1cc(S)cc(c1C)C(F)(F)F
 23 23  0  0  0  0  0  0  0  0999 V2000
    3.6973   -0.0013    3.8152 C   0  0  0  0  0  0  0  0  0  0  0  0
    2.4723   -0.0001    4.5130 O   0  0  0  0  0  0  0  0  0  0  0  0
    1.3078   -0.0002    3.8186 C   0  0  0  0  0  0  0  0  0  0  0  0
    1.2461   -0.0000    2.4229 C   0  0  0  0  0  0  0  0  0  0  0  0
    0.0000   -0.0000    1.7777 C   0  0  0  0  0  0  0  0  0  0  0  0
    0.0000    0.0000    0.0000 S   0  0  0  0  0  0  0  0  0  0  0  0
   -1.1689    0.0000    2.5390 C   0  0  0  0  0  0  0  0  0  0  0  0
   -1.0914   -0.0001    3.9389 C   0  0  0  0  0  0  0  0  0  0  0  0
    0.1370   -0.0006    4.6144 C   0  0  0  0  0  0  0  0  0  0  0  0
    0.3037   -0.0010    6.1109 C   0  0  0  0  0  0  0  0  0  0  0  0
   -2.3862   -0.0001    4.7203 C   0  0  0  0  0  0  0  0  0  0  0  0
   -2.4918    1.0809    5.5189 F   0  0  0  0  0  0  0  0  0  0  0  0
   -3.4655    0.0027    3.9187 F   0  0  0  0  0  0  0  0  0  0  0  0
   -2.4944   -1.0837    5.5149 F   0  0  0  0  0  0  0  0  0  0  0  0
    3.8055   -0.8997    3.1819 H   0  0  0  0  0  0  0  0  0  0  0  0
    4.4893   -0.0022    4.5753 H   0  0  0  0  0  0  0  0  0  0  0  0
    3.8074    0.8968    3.1819 H   0  0  0  0  0  0  0  0  0  0  0  0
    2.1575    0.0001    1.8262 H   0  0  0  0  0  0  0  0  0  0  0  0
   -1.3418   -0.0002   -0.1563 H   0  0  0  0  0  0  0  0  0  0  0  0
   -2.1458    0.0001    2.0583 H   0  0  0  0  0  0  0  0  0  0  0  0
    0.8792    0.8832    6.4281 H   0  0  0  0  0  0  0  0  0  0  0  0
   -0.6475   -0.0085    6.6500 H   0  0  0  0  0  0  0  0  0  0  0  0
    0.8919   -0.8775    6.4258 H   0  0  0  0  0  0  0  0  0  0  0  0
  1  2  1  0  0  0  0
  1 16  1  0  0  0  0
  3  2  1  0  0  0  0
  3  9  2  0  0  0  0
  4  3  1  0  0  0  0
  5  4  2  0  0  0  0
  5  7  1  0  0  0  0
  6  5  1  0  0  0  0
  7  8  2  0  0  0  0
  8  9  1  0  0  0  0
  8 11  1  0  0  0  0
  9 10  1  0  0  0  0
 10 23  1  0  0  0  0
 10 21  1  0  0  0  0
 10 22  1  0  0  0  0
 11 14  1  0  0  0  0
 11 12  1  0  0  0  0
 13 11  1  0  0  0  0
 15  1  1  0  0  0  0
 17  1  1  0  0  0  0
 18  4  1  0  0  0  0
 19  6  1  0  0  0  0
 20  7  1  0  0  0  0
M  END
