313315819.xyz
 OpenBabel08132112103D
COc1c(ccc(c1F)S)OC(F)(F)F
 21 21  0  0  0  0  0  0  0  0999 V2000
   -3.2995   -0.9557    4.4532 C   0  0  0  0  0  0  0  0  0  0  0  0
   -2.3169    0.0557    4.6623 O   0  0  0  0  0  0  0  0  0  0  0  0
   -1.1891    0.0106    3.9236 C   0  0  0  0  0  0  0  0  0  0  0  0
    0.0580    0.0048    4.5725 C   0  0  0  0  0  0  0  0  0  0  0  0
    1.2503    0.0093    3.8534 C   0  0  0  0  0  0  0  0  0  0  0  0
    1.2232   -0.0000    2.4608 C   0  0  0  0  0  0  0  0  0  0  0  0
   -0.0000   -0.0000    1.7724 C   0  0  0  0  0  0  0  0  0  0  0  0
   -1.1829    0.0120    2.5205 C   0  0  0  0  0  0  0  0  0  0  0  0
   -2.3673    0.0423    1.8779 F   0  0  0  0  0  0  0  0  0  0  0  0
    0.0000    0.0000    0.0000 S   0  0  0  0  0  0  0  0  0  0  0  0
    0.0767    0.0507    5.9619 O   0  0  0  0  0  0  0  0  0  0  0  0
    0.1277   -1.1228    6.6274 C   0  0  0  0  0  0  0  0  0  0  0  0
    0.0193   -0.8659    7.9217 F   0  0  0  0  0  0  0  0  0  0  0  0
    1.2845   -1.7726    6.4148 F   0  0  0  0  0  0  0  0  0  0  0  0
   -0.8573   -1.9634    6.2701 F   0  0  0  0  0  0  0  0  0  0  0  0
   -2.8414   -1.9569    4.5029 H   0  0  0  0  0  0  0  0  0  0  0  0
   -4.0230   -0.8520    5.2722 H   0  0  0  0  0  0  0  0  0  0  0  0
   -3.8155   -0.8311    3.4896 H   0  0  0  0  0  0  0  0  0  0  0  0
    2.1946    0.0112    4.3983 H   0  0  0  0  0  0  0  0  0  0  0  0
    2.1572   -0.0013    1.8961 H   0  0  0  0  0  0  0  0  0  0  0  0
   -1.3419    0.0308   -0.1452 H   0  0  0  0  0  0  0  0  0  0  0  0
  1 16  1  0  0  0  0
  1  2  1  0  0  0  0
  1 17  1  0  0  0  0
  3  4  1  0  0  0  0
  3  2  1  0  0  0  0
  4 11  1  0  0  0  0
  5 19  1  0  0  0  0
  5  4  2  0  0  0  0
  6  5  1  0  0  0  0
  7  6  2  0  0  0  0
  7  8  1  0  0  0  0
  8  3  2  0  0  0  0
  9  8  1  0  0  0  0
 10  7  1  0  0  0  0
 11 12  1  0  0  0  0
 12 13  1  0  0  0  0
 14 12  1  0  0  0  0
 15 12  1  0  0  0  0
 18  1  1  0  0  0  0
 20  6  1  0  0  0  0
 21 10  1  0  0  0  0
M  END
