313369971.xyz
 OpenBabel08132112103D
COC(=O)Cc1cc(F)c(c(c1)S)OC(F)(F)F
 26 26  0  0  0  0  0  0  0  0999 V2000
    4.1386    3.4020    4.5437 C   0  0  0  0  0  0  0  0  0  0  0  0
    3.4336    2.2161    4.9178 O   0  0  0  0  0  0  0  0  0  0  0  0
    3.5064    1.1905    4.0564 C   0  0  0  0  0  0  0  0  0  0  0  0
    4.1347    1.2226    3.0265 O   0  0  0  0  0  0  0  0  0  0  0  0
    2.6634    0.0153    4.5157 C   0  0  0  0  0  0  0  0  0  0  0  0
    1.3111    0.0199    3.8279 C   0  0  0  0  0  0  0  0  0  0  0  0
    0.1338    0.0680    4.5836 C   0  0  0  0  0  0  0  0  0  0  0  0
   -1.0931    0.0700    3.9306 C   0  0  0  0  0  0  0  0  0  0  0  0
   -2.2179    0.1374    4.6434 F   0  0  0  0  0  0  0  0  0  0  0  0
   -1.1778    0.0097    2.5365 C   0  0  0  0  0  0  0  0  0  0  0  0
    0.0000    0.0000    1.7693 C   0  0  0  0  0  0  0  0  0  0  0  0
    1.2371    0.0000    2.4309 C   0  0  0  0  0  0  0  0  0  0  0  0
    0.0000    0.0000    0.0000 S   0  0  0  0  0  0  0  0  0  0  0  0
   -2.4266    0.0476    1.9273 O   0  0  0  0  0  0  0  0  0  0  0  0
   -3.1136   -1.1217    1.8012 C   0  0  0  0  0  0  0  0  0  0  0  0
   -2.4679   -1.9933    1.0146 F   0  0  0  0  0  0  0  0  0  0  0  0
   -4.2831   -0.8347    1.2497 F   0  0  0  0  0  0  0  0  0  0  0  0
   -3.3186   -1.7251    2.9733 F   0  0  0  0  0  0  0  0  0  0  0  0
    3.9685    4.1254    5.3499 H   0  0  0  0  0  0  0  0  0  0  0  0
    3.7575    3.7936    3.5888 H   0  0  0  0  0  0  0  0  0  0  0  0
    5.2136    3.1966    4.4319 H   0  0  0  0  0  0  0  0  0  0  0  0
    2.5365    0.0520    5.6046 H   0  0  0  0  0  0  0  0  0  0  0  0
    3.2136   -0.9001    4.2497 H   0  0  0  0  0  0  0  0  0  0  0  0
    0.1487    0.1122    5.6734 H   0  0  0  0  0  0  0  0  0  0  0  0
    2.1598    0.0083    1.8477 H   0  0  0  0  0  0  0  0  0  0  0  0
   -1.3233    0.2197   -0.1493 H   0  0  0  0  0  0  0  0  0  0  0  0
  1  2  1  0  0  0  0
  1 19  1  0  0  0  0
  3  5  1  0  0  0  0
  3  2  1  0  0  0  0
  4  3  2  0  0  0  0
  5 22  1  0  0  0  0
  6  5  1  0  0  0  0
  6  7  2  0  0  0  0
  7 24  1  0  0  0  0
  8  7  1  0  0  0  0
  8  9  1  0  0  0  0
 10  8  2  0  0  0  0
 11 12  2  0  0  0  0
 11 10  1  0  0  0  0
 12  6  1  0  0  0  0
 13 11  1  0  0  0  0
 14 10  1  0  0  0  0
 15 14  1  0  0  0  0
 15 18  1  0  0  0  0
 16 15  1  0  0  0  0
 17 15  1  0  0  0  0
 20  1  1  0  0  0  0
 21  1  1  0  0  0  0
 23  5  1  0  0  0  0
 25 12  1  0  0  0  0
 26 13  1  0  0  0  0
M  END
