313320500.xyz
 OpenBabel08132112103D
CCOc1cc(C(=O)CCl)c(cc1C(F)(F)F)S
 28 28  0  0  0  0  0  0  0  0999 V2000
    0.0509    0.4888    8.2354 C   0  0  0  0  0  0  0  0  0  0  0  0
    0.6065    0.3592    6.8333 C   0  0  0  0  0  0  0  0  0  0  0  0
   -0.4968    0.3423    5.9314 O   0  0  0  0  0  0  0  0  0  0  0  0
   -0.2849    0.2330    4.6106 C   0  0  0  0  0  0  0  0  0  0  0  0
    0.9761    0.1224    4.0214 C   0  0  0  0  0  0  0  0  0  0  0  0
    1.1410    0.0000    2.6312 C   0  0  0  0  0  0  0  0  0  0  0  0
    2.5879   -0.0683    2.2043 C   0  0  0  0  0  0  0  0  0  0  0  0
    3.4517    0.4037    2.9141 O   0  0  0  0  0  0  0  0  0  0  0  0
    3.0125   -0.7657    0.9212 C   0  0  0  0  0  0  0  0  0  0  0  0
    2.4125   -2.4703    0.8788 Cl  0  0  0  0  0  0  0  0  0  0  0  0
    0.0000    0.0000    1.7984 C   0  0  0  0  0  0  0  0  0  0  0  0
   -1.2628    0.1259    2.3988 C   0  0  0  0  0  0  0  0  0  0  0  0
   -1.4231    0.2357    3.7753 C   0  0  0  0  0  0  0  0  0  0  0  0
   -2.8017    0.3545    4.3813 C   0  0  0  0  0  0  0  0  0  0  0  0
   -3.0641   -0.6583    5.2228 F   0  0  0  0  0  0  0  0  0  0  0  0
   -2.9462    1.4983    5.0694 F   0  0  0  0  0  0  0  0  0  0  0  0
   -3.7569    0.3394    3.4333 F   0  0  0  0  0  0  0  0  0  0  0  0
    0.0000    0.0000    0.0000 S   0  0  0  0  0  0  0  0  0  0  0  0
   -0.6107   -0.3587    8.4688 H   0  0  0  0  0  0  0  0  0  0  0  0
   -0.5298    1.4178    8.3363 H   0  0  0  0  0  0  0  0  0  0  0  0
    0.8724    0.5061    8.9676 H   0  0  0  0  0  0  0  0  0  0  0  0
    1.1909   -0.5715    6.7187 H   0  0  0  0  0  0  0  0  0  0  0  0
    1.2720    1.2058    6.5864 H   0  0  0  0  0  0  0  0  0  0  0  0
    1.8804    0.1443    4.6255 H   0  0  0  0  0  0  0  0  0  0  0  0
    2.6093   -0.2513    0.0396 H   0  0  0  0  0  0  0  0  0  0  0  0
    4.1074   -0.7930    0.8988 H   0  0  0  0  0  0  0  0  0  0  0  0
   -2.1462    0.1343    1.7617 H   0  0  0  0  0  0  0  0  0  0  0  0
    0.4093   -1.2827   -0.1610 H   0  0  0  0  0  0  0  0  0  0  0  0
  1 20  1  0  0  0  0
  1 19  1  0  0  0  0
  1 21  1  0  0  0  0
  2  1  1  0  0  0  0
  3  2  1  0  0  0  0
  4  3  1  0  0  0  0
  5  4  1  0  0  0  0
  5 24  1  0  0  0  0
  6  5  2  0  0  0  0
  7  6  1  0  0  0  0
  7  8  2  0  0  0  0
  9  7  1  0  0  0  0
 10  9  1  0  0  0  0
 11 12  2  0  0  0  0
 11  6  1  0  0  0  0
 12 13  1  0  0  0  0
 13 14  1  0  0  0  0
 13  4  2  0  0  0  0
 14 16  1  0  0  0  0
 14 15  1  0  0  0  0
 17 14  1  0  0  0  0
 18 11  1  0  0  0  0
 22  2  1  0  0  0  0
 23  2  1  0  0  0  0
 25  9  1  0  0  0  0
 26  9  1  0  0  0  0
 27 12  1  0  0  0  0
 28 18  1  0  0  0  0
M  END
