313342472.xyz
 OpenBabel08132112103D
N#CCc1cc(cc(c1I)S)C(F)(F)F
 20 20  0  0  0  0  0  0  0  0999 V2000
    3.2977    2.3371    5.1987 N   0  0  0  0  0  0  0  0  0  0  0  0
    2.8015    1.2958    5.0976 C   0  0  0  0  0  0  0  0  0  0  0  0
    2.1601   -0.0177    4.9741 C   0  0  0  0  0  0  0  0  0  0  0  0
    0.9773   -0.0157    4.0203 C   0  0  0  0  0  0  0  0  0  0  0  0
   -0.3068   -0.0235    4.5675 C   0  0  0  0  0  0  0  0  0  0  0  0
   -1.4303   -0.0186    3.7373 C   0  0  0  0  0  0  0  0  0  0  0  0
   -1.2793   -0.0086    2.3576 C   0  0  0  0  0  0  0  0  0  0  0  0
   -0.0000   -0.0000    1.7690 C   0  0  0  0  0  0  0  0  0  0  0  0
    1.1273   -0.0000    2.6180 C   0  0  0  0  0  0  0  0  0  0  0  0
    3.0967    0.0203    1.8009 I   0  0  0  0  0  0  0  0  0  0  0  0
    0.0000    0.0000    0.0000 S   0  0  0  0  0  0  0  0  0  0  0  0
   -2.8066    0.0223    4.3545 C   0  0  0  0  0  0  0  0  0  0  0  0
   -3.1315    1.2688    4.7399 F   0  0  0  0  0  0  0  0  0  0  0  0
   -3.7538   -0.3906    3.4980 F   0  0  0  0  0  0  0  0  0  0  0  0
   -2.8754   -0.7573    5.4478 F   0  0  0  0  0  0  0  0  0  0  0  0
    2.9220   -0.7460    4.6535 H   0  0  0  0  0  0  0  0  0  0  0  0
    1.8208   -0.3258    5.9747 H   0  0  0  0  0  0  0  0  0  0  0  0
   -0.4313   -0.0399    5.6512 H   0  0  0  0  0  0  0  0  0  0  0  0
   -2.1620   -0.0131    1.7164 H   0  0  0  0  0  0  0  0  0  0  0  0
    1.3420    0.0332   -0.1645 H   0  0  0  0  0  0  0  0  0  0  0  0
  2  1  3  0  0  0  0
  3  2  1  0  0  0  0
  3 17  1  0  0  0  0
  4  5  1  0  0  0  0
  4  3  1  0  0  0  0
  5 18  1  0  0  0  0
  6 12  1  0  0  0  0
  6  5  2  0  0  0  0
  7  6  1  0  0  0  0
  8  7  2  0  0  0  0
  8  9  1  0  0  0  0
  9  4  2  0  0  0  0
 10  9  1  0  0  0  0
 11  8  1  0  0  0  0
 12 13  1  0  0  0  0
 12 15  1  0  0  0  0
 14 12  1  0  0  0  0
 16  3  1  0  0  0  0
 19  7  1  0  0  0  0
 20 11  1  0  0  0  0
M  END
