313418937.xyz
 OpenBabel08132112103D
FC(c1cc(cc(c1C(F)(F)F)S)C(=O)O)F
 22 22  0  0  0  0  0  0  0  0999 V2000
    2.7632   -0.9514    5.1839 F   0  0  0  0  0  0  0  0  0  0  0  0
    2.0035    0.1686    5.0982 C   0  0  0  0  0  0  0  0  0  0  0  0
    0.9224    0.0486    4.0362 C   0  0  0  0  0  0  0  0  0  0  0  0
   -0.3773    0.0105    4.5459 C   0  0  0  0  0  0  0  0  0  0  0  0
   -1.4895   -0.0610    3.7009 C   0  0  0  0  0  0  0  0  0  0  0  0
   -1.2917   -0.0295    2.3259 C   0  0  0  0  0  0  0  0  0  0  0  0
    0.0000    0.0000    1.7766 C   0  0  0  0  0  0  0  0  0  0  0  0
    1.1283   -0.0000    2.6372 C   0  0  0  0  0  0  0  0  0  0  0  0
    2.5111   -0.0652    2.0046 C   0  0  0  0  0  0  0  0  0  0  0  0
    3.5100   -0.1901    2.8681 F   0  0  0  0  0  0  0  0  0  0  0  0
    2.7549    1.0473    1.2715 F   0  0  0  0  0  0  0  0  0  0  0  0
    2.5913   -1.1119    1.1620 F   0  0  0  0  0  0  0  0  0  0  0  0
    0.0000    0.0000    0.0000 S   0  0  0  0  0  0  0  0  0  0  0  0
   -2.9072   -0.0949    4.2078 C   0  0  0  0  0  0  0  0  0  0  0  0
   -3.8460    0.2403    3.5390 O   0  0  0  0  0  0  0  0  0  0  0  0
   -3.0765   -0.5314    5.4740 O   0  0  0  0  0  0  0  0  0  0  0  0
    2.8162    1.2290    4.8698 F   0  0  0  0  0  0  0  0  0  0  0  0
    1.5318    0.3216    6.0840 H   0  0  0  0  0  0  0  0  0  0  0  0
   -0.5109    0.0803    5.6282 H   0  0  0  0  0  0  0  0  0  0  0  0
   -2.1682   -0.0166    1.6753 H   0  0  0  0  0  0  0  0  0  0  0  0
    1.2592    0.4281   -0.2119 H   0  0  0  0  0  0  0  0  0  0  0  0
   -2.2562   -0.9112    5.8187 H   0  0  0  0  0  0  0  0  0  0  0  0
  2  1  1  0  0  0  0
  2 18  1  0  0  0  0
  3  4  1  0  0  0  0
  3  2  1  0  0  0  0
  4 19  1  0  0  0  0
  5 14  1  0  0  0  0
  5  4  2  0  0  0  0
  6  5  1  0  0  0  0
  7  6  2  0  0  0  0
  7  8  1  0  0  0  0
  8  3  2  0  0  0  0
  9  8  1  0  0  0  0
  9 10  1  0  0  0  0
 11  9  1  0  0  0  0
 12  9  1  0  0  0  0
 13  7  1  0  0  0  0
 14 16  1  0  0  0  0
 15 14  2  0  0  0  0
 16 22  1  0  0  0  0
 17  2  1  0  0  0  0
 20  6  1  0  0  0  0
 21 13  1  0  0  0  0
M  END
