313485070.xyz
 OpenBabel08132112103D
COC(=O)Cc1ccc(c(c1S)F)OC(F)F
 26 26  0  0  0  0  0  0  0  0999 V2000
    2.4941   -3.6220    0.9082 C   0  0  0  0  0  0  0  0  0  0  0  0
    2.2760   -2.3650    1.5478 O   0  0  0  0  0  0  0  0  0  0  0  0
    2.8448   -1.2998    0.9639 C   0  0  0  0  0  0  0  0  0  0  0  0
    3.5498   -1.3627   -0.0103 O   0  0  0  0  0  0  0  0  0  0  0  0
    2.5267   -0.0070    1.7093 C   0  0  0  0  0  0  0  0  0  0  0  0
    1.2282    0.0000    2.4714 C   0  0  0  0  0  0  0  0  0  0  0  0
    1.2124   -0.0096    3.8697 C   0  0  0  0  0  0  0  0  0  0  0  0
    0.0185   -0.0142    4.5911 C   0  0  0  0  0  0  0  0  0  0  0  0
   -1.1934   -0.0191    3.9059 C   0  0  0  0  0  0  0  0  0  0  0  0
   -1.1895   -0.0128    2.5084 C   0  0  0  0  0  0  0  0  0  0  0  0
    0.0000    0.0000    1.7751 C   0  0  0  0  0  0  0  0  0  0  0  0
    0.0000    0.0000    0.0000 S   0  0  0  0  0  0  0  0  0  0  0  0
   -2.3736   -0.0128    1.8637 F   0  0  0  0  0  0  0  0  0  0  0  0
   -2.3831   -0.0845    4.5978 O   0  0  0  0  0  0  0  0  0  0  0  0
   -3.1805    1.0358    4.5703 C   0  0  0  0  0  0  0  0  0  0  0  0
   -4.3459    0.6922    5.1245 F   0  0  0  0  0  0  0  0  0  0  0  0
   -2.6262    2.0171    5.3209 F   0  0  0  0  0  0  0  0  0  0  0  0
    2.0888   -3.6069   -0.1147 H   0  0  0  0  0  0  0  0  0  0  0  0
    3.5685   -3.8531    0.8556 H   0  0  0  0  0  0  0  0  0  0  0  0
    1.9696   -4.3691    1.5158 H   0  0  0  0  0  0  0  0  0  0  0  0
    3.3659    0.1689    2.4014 H   0  0  0  0  0  0  0  0  0  0  0  0
    2.5677    0.7977    0.9587 H   0  0  0  0  0  0  0  0  0  0  0  0
    2.1633   -0.0131    4.4069 H   0  0  0  0  0  0  0  0  0  0  0  0
    0.0012   -0.0171    5.6812 H   0  0  0  0  0  0  0  0  0  0  0  0
   -1.3421   -0.0533   -0.1360 H   0  0  0  0  0  0  0  0  0  0  0  0
   -3.3451    1.4264    3.5517 H   0  0  0  0  0  0  0  0  0  0  0  0
  1 20  1  0  0  0  0
  1  2  1  0  0  0  0
  3  2  1  0  0  0  0
  3  5  1  0  0  0  0
  4  3  2  0  0  0  0
  5 21  1  0  0  0  0
  5  6  1  0  0  0  0
  6  7  1  0  0  0  0
  7 23  1  0  0  0  0
  7  8  2  0  0  0  0
  8 24  1  0  0  0  0
  9  8  1  0  0  0  0
  9 14  1  0  0  0  0
 10  9  2  0  0  0  0
 11  6  2  0  0  0  0
 11 10  1  0  0  0  0
 12 11  1  0  0  0  0
 13 10  1  0  0  0  0
 15 14  1  0  0  0  0
 15 16  1  0  0  0  0
 15 17  1  0  0  0  0
 18  1  1  0  0  0  0
 19  1  1  0  0  0  0
 22  5  1  0  0  0  0
 25 12  1  0  0  0  0
 26 15  1  0  0  0  0
M  END
