313482272.xyz
 OpenBabel08132112103D
OC(=O)c1c(S)ccc(c1C(F)(F)F)C(F)(F)F
 22 22  0  0  0  0  0  0  0  0999 V2000
    3.0152    1.1687    1.4964 O   0  0  0  0  0  0  0  0  0  0  0  0
    2.4876   -0.0302    1.7813 C   0  0  0  0  0  0  0  0  0  0  0  0
    2.9623   -1.0447    1.3511 O   0  0  0  0  0  0  0  0  0  0  0  0
    1.1806    0.0000    2.5576 C   0  0  0  0  0  0  0  0  0  0  0  0
    0.0000    0.0000    1.7782 C   0  0  0  0  0  0  0  0  0  0  0  0
    0.0000    0.0000    0.0000 S   0  0  0  0  0  0  0  0  0  0  0  0
   -1.2411    0.0454    2.4191 C   0  0  0  0  0  0  0  0  0  0  0  0
   -1.3138    0.0565    3.8062 C   0  0  0  0  0  0  0  0  0  0  0  0
   -0.1608    0.0052    4.5941 C   0  0  0  0  0  0  0  0  0  0  0  0
    1.1040   -0.0097    3.9628 C   0  0  0  0  0  0  0  0  0  0  0  0
    2.3922   -0.1159    4.7751 C   0  0  0  0  0  0  0  0  0  0  0  0
    2.3635    0.6594    5.8654 F   0  0  0  0  0  0  0  0  0  0  0  0
    3.4612    0.2800    4.0585 F   0  0  0  0  0  0  0  0  0  0  0  0
    2.6190   -1.3750    5.1600 F   0  0  0  0  0  0  0  0  0  0  0  0
   -0.3652    0.0008    6.1027 C   0  0  0  0  0  0  0  0  0  0  0  0
    0.3991   -0.9100    6.7185 F   0  0  0  0  0  0  0  0  0  0  0  0
   -0.1056    1.2000    6.6450 F   0  0  0  0  0  0  0  0  0  0  0  0
   -1.6428   -0.2921    6.4079 F   0  0  0  0  0  0  0  0  0  0  0  0
    2.5178    1.8712    1.9408 H   0  0  0  0  0  0  0  0  0  0  0  0
    1.1364   -0.7164   -0.1582 H   0  0  0  0  0  0  0  0  0  0  0  0
   -2.1565    0.0446    1.8244 H   0  0  0  0  0  0  0  0  0  0  0  0
   -2.2883    0.0749    4.2921 H   0  0  0  0  0  0  0  0  0  0  0  0
  1  2  1  0  0  0  0
  1 19  1  0  0  0  0
  2  4  1  0  0  0  0
  3  2  2  0  0  0  0
  4 10  2  0  0  0  0
  5  7  2  0  0  0  0
  5  4  1  0  0  0  0
  6  5  1  0  0  0  0
  7  8  1  0  0  0  0
  8 22  1  0  0  0  0
  8  9  2  0  0  0  0
  9 15  1  0  0  0  0
 10  9  1  0  0  0  0
 10 11  1  0  0  0  0
 11 14  1  0  0  0  0
 11 12  1  0  0  0  0
 13 11  1  0  0  0  0
 15 18  1  0  0  0  0
 15 17  1  0  0  0  0
 15 16  1  0  0  0  0
 20  6  1  0  0  0  0
 21  7  1  0  0  0  0
M  END
