313418735.xyz
 OpenBabel08132112103D
CCOC(=O)Cc1c(ccc(c1OC(F)(F)F)S)C(F)F
 32 32  0  0  0  0  0  0  0  0999 V2000
   -5.7191    2.1336    7.3312 C   0  0  0  0  0  0  0  0  0  0  0  0
   -4.6654    2.4425    6.2907 C   0  0  0  0  0  0  0  0  0  0  0  0
   -4.1194    1.1932    5.8307 O   0  0  0  0  0  0  0  0  0  0  0  0
   -3.1666    1.2711    4.8932 C   0  0  0  0  0  0  0  0  0  0  0  0
   -2.7586    2.3006    4.4222 O   0  0  0  0  0  0  0  0  0  0  0  0
   -2.7097   -0.1201    4.4747 C   0  0  0  0  0  0  0  0  0  0  0  0
   -1.3550   -0.0971    3.8194 C   0  0  0  0  0  0  0  0  0  0  0  0
   -0.1685   -0.1016    4.5788 C   0  0  0  0  0  0  0  0  0  0  0  0
    1.0727   -0.0469    3.9413 C   0  0  0  0  0  0  0  0  0  0  0  0
    1.1622   -0.0000    2.5524 C   0  0  0  0  0  0  0  0  0  0  0  0
   -0.0000    0.0000    1.7717 C   0  0  0  0  0  0  0  0  0  0  0  0
   -1.2423   -0.0312    2.4281 C   0  0  0  0  0  0  0  0  0  0  0  0
   -2.3827   -0.1008    1.6294 O   0  0  0  0  0  0  0  0  0  0  0  0
   -3.0669    1.0184    1.2585 C   0  0  0  0  0  0  0  0  0  0  0  0
   -4.1476    1.1969    2.0347 F   0  0  0  0  0  0  0  0  0  0  0  0
   -3.4988    0.8457    0.0123 F   0  0  0  0  0  0  0  0  0  0  0  0
   -2.3258    2.1179    1.3161 F   0  0  0  0  0  0  0  0  0  0  0  0
    0.0000    0.0000    0.0000 S   0  0  0  0  0  0  0  0  0  0  0  0
   -0.2388   -0.1916    6.0827 C   0  0  0  0  0  0  0  0  0  0  0  0
   -0.9108    0.8802    6.6055 F   0  0  0  0  0  0  0  0  0  0  0  0
    1.0019   -0.1978    6.6326 F   0  0  0  0  0  0  0  0  0  0  0  0
   -6.1603    3.0689    7.7087 H   0  0  0  0  0  0  0  0  0  0  0  0
   -5.2825    1.5886    8.1821 H   0  0  0  0  0  0  0  0  0  0  0  0
   -6.5254    1.5181    6.9038 H   0  0  0  0  0  0  0  0  0  0  0  0
   -5.0789    2.9879    5.4274 H   0  0  0  0  0  0  0  0  0  0  0  0
   -3.8454    3.0551    6.6980 H   0  0  0  0  0  0  0  0  0  0  0  0
   -3.4654   -0.5056    3.7749 H   0  0  0  0  0  0  0  0  0  0  0  0
   -2.7353   -0.7741    5.3567 H   0  0  0  0  0  0  0  0  0  0  0  0
    1.9810   -0.0537    4.5434 H   0  0  0  0  0  0  0  0  0  0  0  0
    2.1422    0.0275    2.0722 H   0  0  0  0  0  0  0  0  0  0  0  0
    1.3378    0.1447   -0.1258 H   0  0  0  0  0  0  0  0  0  0  0  0
   -0.7633   -1.1001    6.4295 H   0  0  0  0  0  0  0  0  0  0  0  0
  1 22  1  0  0  0  0
  1 23  1  0  0  0  0
  2 26  1  0  0  0  0
  2  1  1  0  0  0  0
  3  2  1  0  0  0  0
  4  3  1  0  0  0  0
  5  4  2  0  0  0  0
  6  4  1  0  0  0  0
  6 28  1  0  0  0  0
  7  6  1  0  0  0  0
  7  8  2  0  0  0  0
  8 19  1  0  0  0  0
  9 29  1  0  0  0  0
  9  8  1  0  0  0  0
 10  9  2  0  0  0  0
 11 12  2  0  0  0  0
 11 10  1  0  0  0  0
 12  7  1  0  0  0  0
 13 12  1  0  0  0  0
 14 17  1  0  0  0  0
 14 13  1  0  0  0  0
 14 15  1  0  0  0  0
 16 14  1  0  0  0  0
 18 11  1  0  0  0  0
 19 32  1  0  0  0  0
 19 20  1  0  0  0  0
 19 21  1  0  0  0  0
 24  1  1  0  0  0  0
 25  2  1  0  0  0  0
 27  6  1  0  0  0  0
 30 10  1  0  0  0  0
 31 18  1  0  0  0  0
M  END
