313482784.xyz
 OpenBabel08132112103D
OC(=O)c1cc(S)c(cc1C(F)(F)F)C(F)(F)F
 22 22  0  0  0  0  0  0  0  0999 V2000
    3.5675    0.3779    3.7604 O   0  0  0  0  0  0  0  0  0  0  0  0
    2.5851   -0.0963    4.5554 C   0  0  0  0  0  0  0  0  0  0  0  0
    2.7978   -0.5435    5.6516 O   0  0  0  0  0  0  0  0  0  0  0  0
    1.2410   -0.0255    3.8895 C   0  0  0  0  0  0  0  0  0  0  0  0
    1.2043    0.0000    2.4929 C   0  0  0  0  0  0  0  0  0  0  0  0
    0.0000    0.0000    1.7733 C   0  0  0  0  0  0  0  0  0  0  0  0
    0.0000    0.0000    0.0000 S   0  0  0  0  0  0  0  0  0  0  0  0
   -1.2047   -0.0144    2.5053 C   0  0  0  0  0  0  0  0  0  0  0  0
   -1.1689   -0.0245    3.9003 C   0  0  0  0  0  0  0  0  0  0  0  0
    0.0294   -0.0333    4.6136 C   0  0  0  0  0  0  0  0  0  0  0  0
   -0.0501   -0.0131    6.1315 C   0  0  0  0  0  0  0  0  0  0  0  0
   -1.3133    0.2428    6.5332 F   0  0  0  0  0  0  0  0  0  0  0  0
    0.7217    0.9485    6.6562 F   0  0  0  0  0  0  0  0  0  0  0  0
    0.2950   -1.1831    6.6769 F   0  0  0  0  0  0  0  0  0  0  0  0
   -2.5491    0.0299    1.8113 C   0  0  0  0  0  0  0  0  0  0  0  0
   -2.6533   -0.9368    0.8823 F   0  0  0  0  0  0  0  0  0  0  0  0
   -3.5623   -0.1313    2.6739 F   0  0  0  0  0  0  0  0  0  0  0  0
   -2.7372    1.2032    1.1849 F   0  0  0  0  0  0  0  0  0  0  0  0
    4.3984    0.2603    4.2517 H   0  0  0  0  0  0  0  0  0  0  0  0
    2.1524    0.0100    1.9568 H   0  0  0  0  0  0  0  0  0  0  0  0
    1.3283    0.2172   -0.1207 H   0  0  0  0  0  0  0  0  0  0  0  0
   -2.1098   -0.0147    4.4458 H   0  0  0  0  0  0  0  0  0  0  0  0
  1 19  1  0  0  0  0
  1  2  1  0  0  0  0
  2  3  2  0  0  0  0
  4  2  1  0  0  0  0
  4 10  2  0  0  0  0
  5  4  1  0  0  0  0
  6  5  2  0  0  0  0
  6  8  1  0  0  0  0
  7  6  1  0  0  0  0
  8  9  2  0  0  0  0
  9 22  1  0  0  0  0
  9 10  1  0  0  0  0
 10 11  1  0  0  0  0
 11 12  1  0  0  0  0
 11 13  1  0  0  0  0
 11 14  1  0  0  0  0
 15  8  1  0  0  0  0
 15 17  1  0  0  0  0
 16 15  1  0  0  0  0
 18 15  1  0  0  0  0
 20  5  1  0  0  0  0
 21  7  1  0  0  0  0
M  END
