313446535.xyz
 OpenBabel08132112103D
FC(Oc1cc(S)c(cc1[N+](=O)[O-])CC(=O)O)F
 25 25  0  0  0  0  0  0  0  0999 V2000
   -2.8361    1.9191    4.6744 F   0  0  0  0  0  0  0  0  0  0  0  0
   -3.4795    0.7820    4.3631 C   0  0  0  0  0  0  0  0  0  0  0  0
   -2.6225   -0.2894    4.3477 O   0  0  0  0  0  0  0  0  0  0  0  0
   -1.3846   -0.1345    3.7769 C   0  0  0  0  0  0  0  0  0  0  0  0
   -1.2567   -0.0865    2.3905 C   0  0  0  0  0  0  0  0  0  0  0  0
    0.0000   -0.0000    1.7718 C   0  0  0  0  0  0  0  0  0  0  0  0
    0.0000    0.0000    0.0000 S   0  0  0  0  0  0  0  0  0  0  0  0
    1.1709   -0.0000    2.5732 C   0  0  0  0  0  0  0  0  0  0  0  0
    1.0280   -0.0524    3.9587 C   0  0  0  0  0  0  0  0  0  0  0  0
   -0.2259   -0.0985    4.5688 C   0  0  0  0  0  0  0  0  0  0  0  0
   -0.2658   -0.1231    6.0385 N   0  0  0  0  0  0  0  0  0  0  0  0
   -1.2842    0.2433    6.5965 O   0  0  0  0  0  0  0  0  0  0  0  0
    0.7502   -0.4952    6.6094 O   0  0  0  0  0  0  0  0  0  0  0  0
    2.5524    0.0505    1.9623 C   0  0  0  0  0  0  0  0  0  0  0  0
    2.8881    1.4505    1.4487 C   0  0  0  0  0  0  0  0  0  0  0  0
    2.8644    1.7520    0.2829 O   0  0  0  0  0  0  0  0  0  0  0  0
    3.1695    2.3701    2.3857 O   0  0  0  0  0  0  0  0  0  0  0  0
   -4.0313    0.9682    3.1369 F   0  0  0  0  0  0  0  0  0  0  0  0
   -4.2712    0.5689    5.0954 H   0  0  0  0  0  0  0  0  0  0  0  0
   -2.1659   -0.1075    1.7897 H   0  0  0  0  0  0  0  0  0  0  0  0
    1.1797    0.6411   -0.1985 H   0  0  0  0  0  0  0  0  0  0  0  0
    1.9008   -0.0851    4.6119 H   0  0  0  0  0  0  0  0  0  0  0  0
    3.2994   -0.2577    2.7101 H   0  0  0  0  0  0  0  0  0  0  0  0
    2.6218   -0.6359    1.1070 H   0  0  0  0  0  0  0  0  0  0  0  0
    3.1018    1.9928    3.2750 H   0  0  0  0  0  0  0  0  0  0  0  0
  2  1  1  0  0  0  0
  2 19  1  0  0  0  0
  3  2  1  0  0  0  0
  4  3  1  0  0  0  0
  4 10  2  0  0  0  0
  5  4  1  0  0  0  0
  6  5  2  0  0  0  0
  6  8  1  0  0  0  0
  7  6  1  0  0  0  0
  8  9  2  0  0  0  0
  9 10  1  0  0  0  0
  9 22  1  0  0  0  0
 10 11  1  0  0  0  0
 11 12  2  0  0  0  0
 11 13  2  0  0  0  0
 14  8  1  0  0  0  0
 14 23  1  0  0  0  0
 15 14  1  0  0  0  0
 15 17  1  0  0  0  0
 16 15  2  0  0  0  0
 17 25  1  0  0  0  0
 18  2  1  0  0  0  0
 20  5  1  0  0  0  0
 21  7  1  0  0  0  0
 24 14  1  0  0  0  0
M  END
