313420981.xyz
 OpenBabel08132112103D
FC(c1cc(OC(F)(F)F)c(c(c1)S)C(=O)O)F
 23 23  0  0  0  0  0  0  0  0999 V2000
   -2.8859    0.6499    5.4906 F   0  0  0  0  0  0  0  0  0  0  0  0
   -2.8622   -0.0074    4.3010 C   0  0  0  0  0  0  0  0  0  0  0  0
   -1.4695    0.0205    3.7157 C   0  0  0  0  0  0  0  0  0  0  0  0
   -0.3594   -0.0005    4.5677 C   0  0  0  0  0  0  0  0  0  0  0  0
    0.9027   -0.0162    4.0011 C   0  0  0  0  0  0  0  0  0  0  0  0
    2.0008    0.0051    4.8804 O   0  0  0  0  0  0  0  0  0  0  0  0
    2.3686   -1.1694    5.4816 C   0  0  0  0  0  0  0  0  0  0  0  0
    3.5120   -0.9466    6.1063 F   0  0  0  0  0  0  0  0  0  0  0  0
    1.4571   -1.5750    6.3680 F   0  0  0  0  0  0  0  0  0  0  0  0
    2.5333   -2.1452    4.5880 F   0  0  0  0  0  0  0  0  0  0  0  0
    1.1472   -0.0000    2.6084 C   0  0  0  0  0  0  0  0  0  0  0  0
    0.0000   -0.0000    1.7621 C   0  0  0  0  0  0  0  0  0  0  0  0
   -1.2863    0.0226    2.3413 C   0  0  0  0  0  0  0  0  0  0  0  0
    0.0000    0.0000    0.0000 S   0  0  0  0  0  0  0  0  0  0  0  0
    2.5472    0.0240    2.0401 C   0  0  0  0  0  0  0  0  0  0  0  0
    2.8023   -0.2954    0.8985 O   0  0  0  0  0  0  0  0  0  0  0  0
    3.5376    0.4506    2.8249 O   0  0  0  0  0  0  0  0  0  0  0  0
   -3.7456    0.5918    3.4630 F   0  0  0  0  0  0  0  0  0  0  0  0
   -3.2159   -1.0394    4.4816 H   0  0  0  0  0  0  0  0  0  0  0  0
   -0.4704    0.0088    5.6502 H   0  0  0  0  0  0  0  0  0  0  0  0
   -2.1570    0.0401    1.6842 H   0  0  0  0  0  0  0  0  0  0  0  0
    1.3386   -0.2226   -0.1136 H   0  0  0  0  0  0  0  0  0  0  0  0
    3.2222    0.6176    3.7301 H   0  0  0  0  0  0  0  0  0  0  0  0
  2 19  1  0  0  0  0
  2  1  1  0  0  0  0
  3  2  1  0  0  0  0
  3  4  2  0  0  0  0
  4 20  1  0  0  0  0
  5  4  1  0  0  0  0
  5  6  1  0  0  0  0
  6  7  1  0  0  0  0
  7  8  1  0  0  0  0
  7  9  1  0  0  0  0
 10  7  1  0  0  0  0
 11  5  2  0  0  0  0
 12 13  2  0  0  0  0
 12 11  1  0  0  0  0
 13  3  1  0  0  0  0
 14 12  1  0  0  0  0
 15 11  1  0  0  0  0
 15 17  1  0  0  0  0
 16 15  2  0  0  0  0
 17 23  1  0  0  0  0
 18  2  1  0  0  0  0
 21 13  1  0  0  0  0
 22 14  1  0  0  0  0
M  END
