313477397.xyz
 OpenBabel08132112103D
COC(=O)c1c(CC)ccc(c1C(F)F)S
 28 28  0  0  0  0  0  0  0  0999 V2000
   -3.8822    1.3130    6.0225 C   0  0  0  0  0  0  0  0  0  0  0  0
   -2.6994    1.2489    5.2234 O   0  0  0  0  0  0  0  0  0  0  0  0
   -2.3342    0.0235    4.8210 C   0  0  0  0  0  0  0  0  0  0  0  0
   -2.8870   -0.9919    5.1610 O   0  0  0  0  0  0  0  0  0  0  0  0
   -1.0976    0.0655    3.9588 C   0  0  0  0  0  0  0  0  0  0  0  0
    0.1512    0.0622    4.6107 C   0  0  0  0  0  0  0  0  0  0  0  0
    0.2532    0.0107    6.1183 C   0  0  0  0  0  0  0  0  0  0  0  0
    0.1716   -1.4226    6.6651 C   0  0  0  0  0  0  0  0  0  0  0  0
    1.3087    0.0428    3.8242 C   0  0  0  0  0  0  0  0  0  0  0  0
    1.2414   -0.0000    2.4346 C   0  0  0  0  0  0  0  0  0  0  0  0
    0.0000    0.0000    1.7902 C   0  0  0  0  0  0  0  0  0  0  0  0
   -1.1823    0.0599    2.5563 C   0  0  0  0  0  0  0  0  0  0  0  0
   -2.4994    0.1243    1.8229 C   0  0  0  0  0  0  0  0  0  0  0  0
   -2.8153   -1.0993    1.2932 F   0  0  0  0  0  0  0  0  0  0  0  0
   -3.5282    0.4856    2.6318 F   0  0  0  0  0  0  0  0  0  0  0  0
    0.0000    0.0000    0.0000 S   0  0  0  0  0  0  0  0  0  0  0  0
   -3.7703    0.7095    6.9355 H   0  0  0  0  0  0  0  0  0  0  0  0
   -4.7455    0.9350    5.4549 H   0  0  0  0  0  0  0  0  0  0  0  0
   -4.0232    2.3706    6.2748 H   0  0  0  0  0  0  0  0  0  0  0  0
    1.2067    0.4703    6.4246 H   0  0  0  0  0  0  0  0  0  0  0  0
   -0.5425    0.6269    6.5648 H   0  0  0  0  0  0  0  0  0  0  0  0
   -0.7829   -1.8932    6.3879 H   0  0  0  0  0  0  0  0  0  0  0  0
    0.2544   -1.4274    7.7634 H   0  0  0  0  0  0  0  0  0  0  0  0
    0.9861   -2.0428    6.2588 H   0  0  0  0  0  0  0  0  0  0  0  0
    2.2854    0.0433    4.3152 H   0  0  0  0  0  0  0  0  0  0  0  0
    2.1540   -0.0486    1.8376 H   0  0  0  0  0  0  0  0  0  0  0  0
   -2.4507    0.8420    0.9871 H   0  0  0  0  0  0  0  0  0  0  0  0
   -0.9707   -0.9269   -0.1650 H   0  0  0  0  0  0  0  0  0  0  0  0
  1 19  1  0  0  0  0
  1 17  1  0  0  0  0
  2  1  1  0  0  0  0
  3  4  2  0  0  0  0
  3  2  1  0  0  0  0
  5  6  1  0  0  0  0
  5  3  1  0  0  0  0
  6  7  1  0  0  0  0
  7 20  1  0  0  0  0
  7 21  1  0  0  0  0
  7  8  1  0  0  0  0
  8 23  1  0  0  0  0
  9 25  1  0  0  0  0
  9  6  2  0  0  0  0
 10  9  1  0  0  0  0
 11 10  2  0  0  0  0
 11 12  1  0  0  0  0
 12  5  2  0  0  0  0
 13 12  1  0  0  0  0
 13 15  1  0  0  0  0
 14 13  1  0  0  0  0
 16 11  1  0  0  0  0
 18  1  1  0  0  0  0
 22  8  1  0  0  0  0
 24  8  1  0  0  0  0
 26 10  1  0  0  0  0
 27 13  1  0  0  0  0
 28 16  1  0  0  0  0
M  END
