313494831.xyz
 OpenBabel08132112103D
CCOC(=O)c1c(C)cc(cc1C)S
 28 28  0  0  0  0  0  0  0  0999 V2000
   -1.4206   -0.4325    8.6878 C   0  0  0  0  0  0  0  0  0  0  0  0
   -0.7006    0.7753    8.1130 C   0  0  0  0  0  0  0  0  0  0  0  0
   -0.6962    0.7563    6.6761 O   0  0  0  0  0  0  0  0  0  0  0  0
    0.2433   -0.0026    6.0737 C   0  0  0  0  0  0  0  0  0  0  0  0
    1.0937   -0.5979    6.6982 O   0  0  0  0  0  0  0  0  0  0  0  0
    0.1282    0.0089    4.5851 C   0  0  0  0  0  0  0  0  0  0  0  0
   -1.1309    0.0066    3.9353 C   0  0  0  0  0  0  0  0  0  0  0  0
   -2.4486   -0.0116    4.6744 C   0  0  0  0  0  0  0  0  0  0  0  0
   -1.1721   -0.0078    2.5372 C   0  0  0  0  0  0  0  0  0  0  0  0
    0.0000    0.0000    1.7739 C   0  0  0  0  0  0  0  0  0  0  0  0
    1.2382    0.0000    2.4269 C   0  0  0  0  0  0  0  0  0  0  0  0
    1.3234   -0.0113    3.8212 C   0  0  0  0  0  0  0  0  0  0  0  0
    2.6941   -0.0338    4.4518 C   0  0  0  0  0  0  0  0  0  0  0  0
    0.0000    0.0000    0.0000 S   0  0  0  0  0  0  0  0  0  0  0  0
   -2.4533   -0.4926    8.3105 H   0  0  0  0  0  0  0  0  0  0  0  0
   -1.4596   -0.3596    9.7863 H   0  0  0  0  0  0  0  0  0  0  0  0
   -0.8901   -1.3589    8.4248 H   0  0  0  0  0  0  0  0  0  0  0  0
   -1.2133    1.7113    8.3763 H   0  0  0  0  0  0  0  0  0  0  0  0
    0.3378    0.8188    8.4724 H   0  0  0  0  0  0  0  0  0  0  0  0
   -2.6541    0.9609    5.1446 H   0  0  0  0  0  0  0  0  0  0  0  0
   -3.2698   -0.2461    3.9821 H   0  0  0  0  0  0  0  0  0  0  0  0
   -2.4563   -0.7570    5.4825 H   0  0  0  0  0  0  0  0  0  0  0  0
   -2.1449   -0.0268    2.0405 H   0  0  0  0  0  0  0  0  0  0  0  0
    2.1597    0.0039    1.8401 H   0  0  0  0  0  0  0  0  0  0  0  0
    3.4692    0.1226    3.6884 H   0  0  0  0  0  0  0  0  0  0  0  0
    2.8039    0.7399    5.2260 H   0  0  0  0  0  0  0  0  0  0  0  0
    2.8770   -0.9927    4.9572 H   0  0  0  0  0  0  0  0  0  0  0  0
   -1.3419    0.0161   -0.1590 H   0  0  0  0  0  0  0  0  0  0  0  0
  1 16  1  0  0  0  0
  2 18  1  0  0  0  0
  2 19  1  0  0  0  0
  2  1  1  0  0  0  0
  3  2  1  0  0  0  0
  4  3  1  0  0  0  0
  4  5  2  0  0  0  0
  6  4  1  0  0  0  0
  7  6  1  0  0  0  0
  7  8  1  0  0  0  0
  8 20  1  0  0  0  0
  8 22  1  0  0  0  0
  9  7  2  0  0  0  0
 10 11  2  0  0  0  0
 10  9  1  0  0  0  0
 11 12  1  0  0  0  0
 12 13  1  0  0  0  0
 12  6  2  0  0  0  0
 13 27  1  0  0  0  0
 13 26  1  0  0  0  0
 14 10  1  0  0  0  0
 15  1  1  0  0  0  0
 17  1  1  0  0  0  0
 21  8  1  0  0  0  0
 23  9  1  0  0  0  0
 24 11  1  0  0  0  0
 25 13  1  0  0  0  0
 28 14  1  0  0  0  0
M  END
