313420498.xyz
 OpenBabel08132112103D
CCOC(=O)Cc1c(OC(F)F)cc(cc1C(F)(F)F)S
 32 32  0  0  0  0  0  0  0  0999 V2000
    2.7456   -2.5373    8.6673 C   0  0  0  0  0  0  0  0  0  0  0  0
    1.2343   -2.6315    8.5546 C   0  0  0  0  0  0  0  0  0  0  0  0
    0.6916   -1.4468    7.9350 O   0  0  0  0  0  0  0  0  0  0  0  0
    0.7120   -1.3972    6.5995 C   0  0  0  0  0  0  0  0  0  0  0  0
    1.0681   -2.3106    5.8921 O   0  0  0  0  0  0  0  0  0  0  0  0
    0.2772   -0.0276    6.1060 C   0  0  0  0  0  0  0  0  0  0  0  0
    0.1238    0.0141    4.6106 C   0  0  0  0  0  0  0  0  0  0  0  0
    1.2819   -0.0001    3.8188 C   0  0  0  0  0  0  0  0  0  0  0  0
    2.4932    0.0111    4.4818 O   0  0  0  0  0  0  0  0  0  0  0  0
    3.3127   -1.0802    4.3168 C   0  0  0  0  0  0  0  0  0  0  0  0
    4.1171   -1.1286    5.3903 F   0  0  0  0  0  0  0  0  0  0  0  0
    4.1016   -0.9134    3.2248 F   0  0  0  0  0  0  0  0  0  0  0  0
    1.2404   -0.0000    2.4270 C   0  0  0  0  0  0  0  0  0  0  0  0
    0.0000    0.0000    1.7739 C   0  0  0  0  0  0  0  0  0  0  0  0
   -1.1730    0.0006    2.5392 C   0  0  0  0  0  0  0  0  0  0  0  0
   -1.1068    0.0038    3.9351 C   0  0  0  0  0  0  0  0  0  0  0  0
   -2.3958   -0.0385    4.7236 C   0  0  0  0  0  0  0  0  0  0  0  0
   -3.4760   -0.1200    3.9327 F   0  0  0  0  0  0  0  0  0  0  0  0
   -2.4297   -1.0999    5.5540 F   0  0  0  0  0  0  0  0  0  0  0  0
   -2.5504    1.0601    5.4907 F   0  0  0  0  0  0  0  0  0  0  0  0
    0.0000    0.0000    0.0000 S   0  0  0  0  0  0  0  0  0  0  0  0
    3.1423   -3.4357    9.1660 H   0  0  0  0  0  0  0  0  0  0  0  0
    3.2081   -2.4623    7.6723 H   0  0  0  0  0  0  0  0  0  0  0  0
    3.0401   -1.6558    9.2573 H   0  0  0  0  0  0  0  0  0  0  0  0
    0.9318   -3.5091    7.9657 H   0  0  0  0  0  0  0  0  0  0  0  0
    0.7541   -2.6749    9.5419 H   0  0  0  0  0  0  0  0  0  0  0  0
   -0.6273    0.2740    6.6446 H   0  0  0  0  0  0  0  0  0  0  0  0
    1.0727    0.6677    6.4181 H   0  0  0  0  0  0  0  0  0  0  0  0
    2.7444   -2.0175    4.2217 H   0  0  0  0  0  0  0  0  0  0  0  0
    2.1772    0.0019    1.8686 H   0  0  0  0  0  0  0  0  0  0  0  0
   -2.1486   -0.0083    2.0548 H   0  0  0  0  0  0  0  0  0  0  0  0
   -1.3422   -0.0128   -0.1547 H   0  0  0  0  0  0  0  0  0  0  0  0
  1 22  1  0  0  0  0
  1 24  1  0  0  0  0
  2  1  1  0  0  0  0
  2 26  1  0  0  0  0
  3  2  1  0  0  0  0
  4  3  1  0  0  0  0
  5  4  2  0  0  0  0
  6 28  1  0  0  0  0
  6  4  1  0  0  0  0
  6 27  1  0  0  0  0
  7  6  1  0  0  0  0
  8  9  1  0  0  0  0
  8  7  2  0  0  0  0
 10  9  1  0  0  0  0
 10 11  1  0  0  0  0
 12 10  1  0  0  0  0
 13  8  1  0  0  0  0
 14 13  2  0  0  0  0
 14 15  1  0  0  0  0
 15 16  2  0  0  0  0
 16  7  1  0  0  0  0
 16 17  1  0  0  0  0
 17 20  1  0  0  0  0
 17 19  1  0  0  0  0
 18 17  1  0  0  0  0
 21 14  1  0  0  0  0
 23  1  1  0  0  0  0
 25  2  1  0  0  0  0
 29 10  1  0  0  0  0
 30 13  1  0  0  0  0
 31 15  1  0  0  0  0
 32 21  1  0  0  0  0
M  END
