313461467.xyz
 OpenBabel08132112103D
SCCCC1CCCC1
 25 25  0  0  0  0  0  0  0  0999 V2000
    0.0000    0.0000    0.0000 S   0  0  0  0  0  0  0  0  0  0  0  0
   -0.0000   -0.0000    1.8402 C   0  0  0  0  0  0  0  0  0  0  0  0
    1.4372    0.0000    2.3526 C   0  0  0  0  0  0  0  0  0  0  0  0
    1.5160   -0.0042    3.8809 C   0  0  0  0  0  0  0  0  0  0  0  0
    2.9416    0.0353    4.4280 C   0  0  0  0  0  0  0  0  0  0  0  0
    3.8165   -1.1838    4.0623 C   0  0  0  0  0  0  0  0  0  0  0  0
    4.9047   -1.2776    5.1668 C   0  0  0  0  0  0  0  0  0  0  0  0
    4.5158   -0.2234    6.2339 C   0  0  0  0  0  0  0  0  0  0  0  0
    3.0373    0.0767    5.9603 C   0  0  0  0  0  0  0  0  0  0  0  0
   -1.3432   -0.0067   -0.1603 H   0  0  0  0  0  0  0  0  0  0  0  0
   -0.5341   -0.8916    2.2044 H   0  0  0  0  0  0  0  0  0  0  0  0
   -0.5359    0.8903    2.2050 H   0  0  0  0  0  0  0  0  0  0  0  0
    1.9651    0.8860    1.9577 H   0  0  0  0  0  0  0  0  0  0  0  0
    1.9642   -0.8802    1.9471 H   0  0  0  0  0  0  0  0  0  0  0  0
    0.9529    0.8606    4.2755 H   0  0  0  0  0  0  0  0  0  0  0  0
    1.0075   -0.9050    4.2726 H   0  0  0  0  0  0  0  0  0  0  0  0
    3.4362    0.9456    4.0381 H   0  0  0  0  0  0  0  0  0  0  0  0
    3.1871   -2.0905    4.0681 H   0  0  0  0  0  0  0  0  0  0  0  0
    4.2448   -1.1048    3.0520 H   0  0  0  0  0  0  0  0  0  0  0  0
    5.9133   -1.0903    4.7681 H   0  0  0  0  0  0  0  0  0  0  0  0
    4.9261   -2.2885    5.6025 H   0  0  0  0  0  0  0  0  0  0  0  0
    5.1051    0.6971    6.0870 H   0  0  0  0  0  0  0  0  0  0  0  0
    4.7065   -0.5641    7.2631 H   0  0  0  0  0  0  0  0  0  0  0  0
    2.6968    1.0330    6.3886 H   0  0  0  0  0  0  0  0  0  0  0  0
    2.3985   -0.7190    6.3859 H   0  0  0  0  0  0  0  0  0  0  0  0
  1  2  1  0  0  0  0
  2 11  1  0  0  0  0
  2 12  1  0  0  0  0
  2  3  1  0  0  0  0
  3  4  1  0  0  0  0
  4 16  1  0  0  0  0
  4 15  1  0  0  0  0
  4  5  1  0  0  0  0
  5  9  1  0  0  0  0
  6 18  1  0  0  0  0
  6  5  1  0  0  0  0
  6  7  1  0  0  0  0
  7 21  1  0  0  0  0
  7  8  1  0  0  0  0
  8 23  1  0  0  0  0
  9  8  1  0  0  0  0
  9 25  1  0  0  0  0
  9 24  1  0  0  0  0
 10  1  1  0  0  0  0
 13  3  1  0  0  0  0
 14  3  1  0  0  0  0
 17  5  1  0  0  0  0
 19  6  1  0  0  0  0
 20  7  1  0  0  0  0
 22  8  1  0  0  0  0
M  END
