313423333.xyz
 OpenBabel08132112103D
CCOC(=O)Cc1cc(S)c(cc1C(F)F)OC
 32 32  0  0  0  0  0  0  0  0999 V2000
   -2.7685   -4.2472    3.2955 C   0  0  0  0  0  0  0  0  0  0  0  0
   -3.9589   -3.4660    3.8220 C   0  0  0  0  0  0  0  0  0  0  0  0
   -3.7059   -2.0477    3.7815 O   0  0  0  0  0  0  0  0  0  0  0  0
   -2.9965   -1.5213    4.7905 C   0  0  0  0  0  0  0  0  0  0  0  0
   -2.6290   -2.1479    5.7578 O   0  0  0  0  0  0  0  0  0  0  0  0
   -2.6522   -0.0685    4.5232 C   0  0  0  0  0  0  0  0  0  0  0  0
   -1.2926   -0.0049    3.8496 C   0  0  0  0  0  0  0  0  0  0  0  0
   -1.2208   -0.0039    2.4522 C   0  0  0  0  0  0  0  0  0  0  0  0
   -0.0000    0.0000    1.7721 C   0  0  0  0  0  0  0  0  0  0  0  0
    0.0000    0.0000    0.0000 S   0  0  0  0  0  0  0  0  0  0  0  0
    1.1982    0.0000    2.5220 C   0  0  0  0  0  0  0  0  0  0  0  0
    1.1343   -0.0104    3.9172 C   0  0  0  0  0  0  0  0  0  0  0  0
   -0.0956   -0.0198    4.5840 C   0  0  0  0  0  0  0  0  0  0  0  0
   -0.1210   -0.0454    6.0943 C   0  0  0  0  0  0  0  0  0  0  0  0
    1.1362   -0.1738    6.6016 F   0  0  0  0  0  0  0  0  0  0  0  0
   -0.6300    1.1338    6.5783 F   0  0  0  0  0  0  0  0  0  0  0  0
    2.3597    0.0077    1.8175 O   0  0  0  0  0  0  0  0  0  0  0  0
    3.5879    0.0131    2.5129 C   0  0  0  0  0  0  0  0  0  0  0  0
   -2.5022   -3.9173    2.2796 H   0  0  0  0  0  0  0  0  0  0  0  0
   -1.8963   -4.1120    3.9515 H   0  0  0  0  0  0  0  0  0  0  0  0
   -3.0088   -5.3216    3.2606 H   0  0  0  0  0  0  0  0  0  0  0  0
   -4.8475   -3.6077    3.1912 H   0  0  0  0  0  0  0  0  0  0  0  0
   -4.1986   -3.7553    4.8555 H   0  0  0  0  0  0  0  0  0  0  0  0
   -2.6478    0.4708    5.4777 H   0  0  0  0  0  0  0  0  0  0  0  0
   -3.4159    0.3705    3.8687 H   0  0  0  0  0  0  0  0  0  0  0  0
   -2.1478   -0.0098    1.8739 H   0  0  0  0  0  0  0  0  0  0  0  0
    1.3440    0.0172   -0.1266 H   0  0  0  0  0  0  0  0  0  0  0  0
    2.0434   -0.0202    4.5138 H   0  0  0  0  0  0  0  0  0  0  0  0
   -0.7415   -0.8626    6.4937 H   0  0  0  0  0  0  0  0  0  0  0  0
    3.7036   -0.8883    3.1397 H   0  0  0  0  0  0  0  0  0  0  0  0
    4.3776    0.0247    1.7506 H   0  0  0  0  0  0  0  0  0  0  0  0
    3.6885    0.9076    3.1520 H   0  0  0  0  0  0  0  0  0  0  0  0
  1  2  1  0  0  0  0
  1 20  1  0  0  0  0
  2 23  1  0  0  0  0
  3  2  1  0  0  0  0
  3  4  1  0  0  0  0
  4  5  2  0  0  0  0
  6  4  1  0  0  0  0
  6 24  1  0  0  0  0
  7  6  1  0  0  0  0
  7 13  2  0  0  0  0
  8  7  1  0  0  0  0
  9  8  2  0  0  0  0
  9 11  1  0  0  0  0
 10  9  1  0  0  0  0
 11 12  2  0  0  0  0
 12 28  1  0  0  0  0
 12 13  1  0  0  0  0
 13 14  1  0  0  0  0
 14 29  1  0  0  0  0
 14 16  1  0  0  0  0
 14 15  1  0  0  0  0
 17 18  1  0  0  0  0
 17 11  1  0  0  0  0
 18 30  1  0  0  0  0
 18 32  1  0  0  0  0
 19  1  1  0  0  0  0
 21  1  1  0  0  0  0
 22  2  1  0  0  0  0
 25  6  1  0  0  0  0
 26  8  1  0  0  0  0
 27 10  1  0  0  0  0
 31 18  1  0  0  0  0
M  END
