313447646.xyz
 OpenBabel08132112103D
CCOC(=O)c1cc(CC)c(cc1S)C(F)F
 31 31  0  0  0  0  0  0  0  0999 V2000
   -4.7708   -1.3440    0.5342 C   0  0  0  0  0  0  0  0  0  0  0  0
   -4.2407    0.0745    0.6320 C   0  0  0  0  0  0  0  0  0  0  0  0
   -2.8488    0.0944    1.0112 O   0  0  0  0  0  0  0  0  0  0  0  0
   -2.5632   -0.0182    2.3270 C   0  0  0  0  0  0  0  0  0  0  0  0
   -3.4349   -0.1062    3.1619 O   0  0  0  0  0  0  0  0  0  0  0  0
   -1.1039   -0.0108    2.6620 C   0  0  0  0  0  0  0  0  0  0  0  0
   -0.8479   -0.0248    4.0484 C   0  0  0  0  0  0  0  0  0  0  0  0
    0.4282   -0.0222    4.5996 C   0  0  0  0  0  0  0  0  0  0  0  0
    0.6059   -0.0866    6.1009 C   0  0  0  0  0  0  0  0  0  0  0  0
    0.7085   -1.5264    6.6255 C   0  0  0  0  0  0  0  0  0  0  0  0
    1.5161   -0.0112    3.6997 C   0  0  0  0  0  0  0  0  0  0  0  0
    1.2949   -0.0000    2.3283 C   0  0  0  0  0  0  0  0  0  0  0  0
    0.0000    0.0000    1.7727 C   0  0  0  0  0  0  0  0  0  0  0  0
    0.0000    0.0000    0.0000 S   0  0  0  0  0  0  0  0  0  0  0  0
    2.9340    0.0119    4.2215 C   0  0  0  0  0  0  0  0  0  0  0  0
    3.8363   -0.1366    3.2175 F   0  0  0  0  0  0  0  0  0  0  0  0
    3.1949    1.2095    4.8277 F   0  0  0  0  0  0  0  0  0  0  0  0
   -4.1677   -1.9419   -0.1665 H   0  0  0  0  0  0  0  0  0  0  0  0
   -5.8101   -1.3294    0.1696 H   0  0  0  0  0  0  0  0  0  0  0  0
   -4.7591   -1.8303    1.5200 H   0  0  0  0  0  0  0  0  0  0  0  0
   -4.2656    0.5849   -0.3411 H   0  0  0  0  0  0  0  0  0  0  0  0
   -4.8110    0.6630    1.3642 H   0  0  0  0  0  0  0  0  0  0  0  0
   -1.7194   -0.0358    4.7049 H   0  0  0  0  0  0  0  0  0  0  0  0
    1.4914    0.4907    6.4044 H   0  0  0  0  0  0  0  0  0  0  0  0
   -0.2563    0.4070    6.5766 H   0  0  0  0  0  0  0  0  0  0  0  0
    0.8284   -1.5411    7.7202 H   0  0  0  0  0  0  0  0  0  0  0  0
   -0.1962   -2.1005    6.3719 H   0  0  0  0  0  0  0  0  0  0  0  0
    1.5669   -2.0595    6.1855 H   0  0  0  0  0  0  0  0  0  0  0  0
    2.1557    0.0060    1.6588 H   0  0  0  0  0  0  0  0  0  0  0  0
   -1.3366    0.0463   -0.1627 H   0  0  0  0  0  0  0  0  0  0  0  0
    3.1256   -0.7808    4.9644 H   0  0  0  0  0  0  0  0  0  0  0  0
  1  2  1  0  0  0  0
  1 20  1  0  0  0  0
  2  3  1  0  0  0  0
  2 22  1  0  0  0  0
  3  4  1  0  0  0  0
  4  6  1  0  0  0  0
  4  5  2  0  0  0  0
  6  7  2  0  0  0  0
  7  8  1  0  0  0  0
  7 23  1  0  0  0  0
  8  9  1  0  0  0  0
  9 24  1  0  0  0  0
  9 25  1  0  0  0  0
  9 10  1  0  0  0  0
 10 26  1  0  0  0  0
 11 15  1  0  0  0  0
 11  8  2  0  0  0  0
 12 11  1  0  0  0  0
 13 12  2  0  0  0  0
 13  6  1  0  0  0  0
 14 13  1  0  0  0  0
 15 17  1  0  0  0  0
 15 31  1  0  0  0  0
 16 15  1  0  0  0  0
 18  1  1  0  0  0  0
 19  1  1  0  0  0  0
 21  2  1  0  0  0  0
 27 10  1  0  0  0  0
 28 10  1  0  0  0  0
 29 12  1  0  0  0  0
 30 14  1  0  0  0  0
M  END
