313410782.xyz
 OpenBabel08132112103D
CCOC(=O)c1c(I)cc(cc1OC(F)F)S
 26 26  0  0  0  0  0  0  0  0999 V2000
    1.0805   -2.2291    8.5748 C   0  0  0  0  0  0  0  0  0  0  0  0
    0.3302   -0.9950    8.1268 C   0  0  0  0  0  0  0  0  0  0  0  0
    0.3254   -0.9855    6.6862 O   0  0  0  0  0  0  0  0  0  0  0  0
   -0.2735    0.0439    6.0914 C   0  0  0  0  0  0  0  0  0  0  0  0
   -0.8779    0.9120    6.6779 O   0  0  0  0  0  0  0  0  0  0  0  0
   -0.1243   -0.0026    4.6000 C   0  0  0  0  0  0  0  0  0  0  0  0
    1.1076   -0.0071    3.9277 C   0  0  0  0  0  0  0  0  0  0  0  0
    2.9557    0.0703    4.9842 I   0  0  0  0  0  0  0  0  0  0  0  0
    1.1790   -0.0000    2.5334 C   0  0  0  0  0  0  0  0  0  0  0  0
    0.0000   -0.0000    1.7720 C   0  0  0  0  0  0  0  0  0  0  0  0
   -1.2422    0.0010    2.4223 C   0  0  0  0  0  0  0  0  0  0  0  0
   -1.2911    0.0034    3.8120 C   0  0  0  0  0  0  0  0  0  0  0  0
   -2.5196   -0.0624    4.4335 O   0  0  0  0  0  0  0  0  0  0  0  0
   -3.1615    1.1339    4.6864 C   0  0  0  0  0  0  0  0  0  0  0  0
   -3.5804    1.6878    3.5199 F   0  0  0  0  0  0  0  0  0  0  0  0
   -4.2395    0.8386    5.4147 F   0  0  0  0  0  0  0  0  0  0  0  0
    0.0000    0.0000    0.0000 S   0  0  0  0  0  0  0  0  0  0  0  0
    0.5914   -3.1418    8.2021 H   0  0  0  0  0  0  0  0  0  0  0  0
    1.1063   -2.2734    9.6744 H   0  0  0  0  0  0  0  0  0  0  0  0
    2.1154   -2.2144    8.2015 H   0  0  0  0  0  0  0  0  0  0  0  0
    0.8058   -0.0658    8.4790 H   0  0  0  0  0  0  0  0  0  0  0  0
   -0.7121   -0.9840    8.4821 H   0  0  0  0  0  0  0  0  0  0  0  0
    2.1521    0.0101    2.0420 H   0  0  0  0  0  0  0  0  0  0  0  0
   -2.1806   -0.0052    1.8678 H   0  0  0  0  0  0  0  0  0  0  0  0
   -2.5151    1.8499    5.2167 H   0  0  0  0  0  0  0  0  0  0  0  0
    1.3423   -0.0083   -0.1565 H   0  0  0  0  0  0  0  0  0  0  0  0
  1 19  1  0  0  0  0
  2 21  1  0  0  0  0
  2 22  1  0  0  0  0
  2  1  1  0  0  0  0
  3  2  1  0  0  0  0
  4  5  2  0  0  0  0
  4  3  1  0  0  0  0
  6  4  1  0  0  0  0
  7  6  1  0  0  0  0
  7  8  1  0  0  0  0
  9  7  2  0  0  0  0
 10 11  2  0  0  0  0
 10  9  1  0  0  0  0
 11 12  1  0  0  0  0
 12 13  1  0  0  0  0
 12  6  2  0  0  0  0
 13 14  1  0  0  0  0
 14 25  1  0  0  0  0
 14 16  1  0  0  0  0
 15 14  1  0  0  0  0
 17 10  1  0  0  0  0
 18  1  1  0  0  0  0
 20  1  1  0  0  0  0
 23  9  1  0  0  0  0
 24 11  1  0  0  0  0
 26 17  1  0  0  0  0
M  END
