313418424.xyz
 OpenBabel08132112103D
OC(=O)Cc1c(S)c(ccc1C(F)F)OC(F)(F)F
 26 26  0  0  0  0  0  0  0  0999 V2000
    3.7197    1.4331    0.2495 O   0  0  0  0  0  0  0  0  0  0  0  0
    3.1031    1.3470    1.4379 C   0  0  0  0  0  0  0  0  0  0  0  0
    3.0660    2.2581    2.2284 O   0  0  0  0  0  0  0  0  0  0  0  0
    2.5196   -0.0346    1.6766 C   0  0  0  0  0  0  0  0  0  0  0  0
    1.2305    0.0000    2.4657 C   0  0  0  0  0  0  0  0  0  0  0  0
    0.0000   -0.0000    1.7771 C   0  0  0  0  0  0  0  0  0  0  0  0
    0.0000    0.0000    0.0000 S   0  0  0  0  0  0  0  0  0  0  0  0
   -1.1942    0.0156    2.5188 C   0  0  0  0  0  0  0  0  0  0  0  0
   -1.1883    0.0719    3.9072 C   0  0  0  0  0  0  0  0  0  0  0  0
    0.0291    0.0940    4.5837 C   0  0  0  0  0  0  0  0  0  0  0  0
    1.2298    0.0568    3.8717 C   0  0  0  0  0  0  0  0  0  0  0  0
    2.5383    0.1264    4.6291 C   0  0  0  0  0  0  0  0  0  0  0  0
    2.3234    0.2495    5.9632 F   0  0  0  0  0  0  0  0  0  0  0  0
    3.2607   -1.0260    4.4440 F   0  0  0  0  0  0  0  0  0  0  0  0
   -2.4041    0.0413    1.8219 O   0  0  0  0  0  0  0  0  0  0  0  0
   -3.1967   -1.0594    1.8587 C   0  0  0  0  0  0  0  0  0  0  0  0
   -3.7541   -1.2435    3.0641 F   0  0  0  0  0  0  0  0  0  0  0  0
   -2.5237   -2.1736    1.5554 F   0  0  0  0  0  0  0  0  0  0  0  0
   -4.1649   -0.8834    0.9699 F   0  0  0  0  0  0  0  0  0  0  0  0
    4.1008    2.3269    0.1903 H   0  0  0  0  0  0  0  0  0  0  0  0
    3.2835   -0.6064    2.2242 H   0  0  0  0  0  0  0  0  0  0  0  0
    2.3924   -0.5433    0.7122 H   0  0  0  0  0  0  0  0  0  0  0  0
   -1.3341    0.1550   -0.1293 H   0  0  0  0  0  0  0  0  0  0  0  0
   -2.1354    0.1047    4.4451 H   0  0  0  0  0  0  0  0  0  0  0  0
    0.0517    0.1530    5.6709 H   0  0  0  0  0  0  0  0  0  0  0  0
    3.1594    0.9734    4.2985 H   0  0  0  0  0  0  0  0  0  0  0  0
  1  2  1  0  0  0  0
  2  4  1  0  0  0  0
  2  3  2  0  0  0  0
  4 21  1  0  0  0  0
  4  5  1  0  0  0  0
  5 11  1  0  0  0  0
  6  5  2  0  0  0  0
  6  8  1  0  0  0  0
  7  6  1  0  0  0  0
  8  9  2  0  0  0  0
  9 24  1  0  0  0  0
  9 10  1  0  0  0  0
 10 25  1  0  0  0  0
 11 10  2  0  0  0  0
 11 12  1  0  0  0  0
 12 13  1  0  0  0  0
 14 12  1  0  0  0  0
 15 16  1  0  0  0  0
 15  8  1  0  0  0  0
 16 17  1  0  0  0  0
 18 16  1  0  0  0  0
 19 16  1  0  0  0  0
 20  1  1  0  0  0  0
 22  4  1  0  0  0  0
 23  7  1  0  0  0  0
 26 12  1  0  0  0  0
M  END
