313424035.xyz
 OpenBabel08132112103D
Fc1cc(S)c(c(c1)C(=O)O)C(F)F
 19 19  0  0  0  0  0  0  0  0999 V2000
   -2.6482   -0.1142    4.2530 F   0  0  0  0  0  0  0  0  0  0  0  0
   -1.4214   -0.0710    3.7275 C   0  0  0  0  0  0  0  0  0  0  0  0
   -1.2812   -0.0296    2.3484 C   0  0  0  0  0  0  0  0  0  0  0  0
    0.0000    0.0000    1.7766 C   0  0  0  0  0  0  0  0  0  0  0  0
    0.0000    0.0000    0.0000 S   0  0  0  0  0  0  0  0  0  0  0  0
    1.1478    0.0000    2.6091 C   0  0  0  0  0  0  0  0  0  0  0  0
    0.9621    0.0169    4.0123 C   0  0  0  0  0  0  0  0  0  0  0  0
   -0.3208   -0.0429    4.5710 C   0  0  0  0  0  0  0  0  0  0  0  0
    2.0498    0.1108    5.0466 C   0  0  0  0  0  0  0  0  0  0  0  0
    1.9264   -0.2757    6.1823 O   0  0  0  0  0  0  0  0  0  0  0  0
    3.1701    0.7342    4.6246 O   0  0  0  0  0  0  0  0  0  0  0  0
    2.5251   -0.1207    1.9977 C   0  0  0  0  0  0  0  0  0  0  0  0
    2.5895   -1.2175    1.1907 F   0  0  0  0  0  0  0  0  0  0  0  0
    2.8056    0.9652    1.2051 F   0  0  0  0  0  0  0  0  0  0  0  0
   -2.1742   -0.0146    1.7211 H   0  0  0  0  0  0  0  0  0  0  0  0
    1.2685    0.4127   -0.1869 H   0  0  0  0  0  0  0  0  0  0  0  0
   -0.4456   -0.0561    5.6529 H   0  0  0  0  0  0  0  0  0  0  0  0
    3.7761    0.7582    5.3860 H   0  0  0  0  0  0  0  0  0  0  0  0
    3.3224   -0.1986    2.7407 H   0  0  0  0  0  0  0  0  0  0  0  0
  2  1  1  0  0  0  0
  2  8  2  0  0  0  0
  3  2  1  0  0  0  0
  4  3  2  0  0  0  0
  4  6  1  0  0  0  0
  5  4  1  0  0  0  0
  6  7  2  0  0  0  0
  7  8  1  0  0  0  0
  7  9  1  0  0  0  0
  8 17  1  0  0  0  0
  9 10  2  0  0  0  0
 11  9  1  0  0  0  0
 11 18  1  0  0  0  0
 12  6  1  0  0  0  0
 12 19  1  0  0  0  0
 13 12  1  0  0  0  0
 14 12  1  0  0  0  0
 15  3  1  0  0  0  0
 16  5  1  0  0  0  0
M  END
