313424363.xyz
 OpenBabel08132112103D
CCOC(=O)c1c(S)ccc(c1[N+](=O)[O-])C(F)F
 27 27  0  0  0  0  0  0  0  0999 V2000
    5.5135   -0.0598    2.9427 C   0  0  0  0  0  0  0  0  0  0  0  0
    4.6870    1.0612    2.3410 C   0  0  0  0  0  0  0  0  0  0  0  0
    3.2933    0.9345    2.7045 O   0  0  0  0  0  0  0  0  0  0  0  0
    2.5312    0.1037    1.9949 C   0  0  0  0  0  0  0  0  0  0  0  0
    2.8902   -0.4454    0.9755 O   0  0  0  0  0  0  0  0  0  0  0  0
    1.1557   -0.0000    2.5843 C   0  0  0  0  0  0  0  0  0  0  0  0
    0.0000   -0.0000    1.7671 C   0  0  0  0  0  0  0  0  0  0  0  0
    0.0000    0.0000    0.0000 S   0  0  0  0  0  0  0  0  0  0  0  0
   -1.2644    0.0399    2.3853 C   0  0  0  0  0  0  0  0  0  0  0  0
   -1.3947    0.0559    3.7661 C   0  0  0  0  0  0  0  0  0  0  0  0
   -0.2681    0.0086    4.5968 C   0  0  0  0  0  0  0  0  0  0  0  0
    0.9816   -0.0297    3.9788 C   0  0  0  0  0  0  0  0  0  0  0  0
    2.1799   -0.1810    4.8361 N   0  0  0  0  0  0  0  0  0  0  0  0
    2.3279    0.6246    5.7367 O   0  0  0  0  0  0  0  0  0  0  0  0
    2.9187   -1.1137    4.5853 O   0  0  0  0  0  0  0  0  0  0  0  0
   -0.4249   -0.0423    6.1026 C   0  0  0  0  0  0  0  0  0  0  0  0
   -1.7425   -0.0672    6.4322 F   0  0  0  0  0  0  0  0  0  0  0  0
    0.1470   -1.1803    6.5845 F   0  0  0  0  0  0  0  0  0  0  0  0
    5.3673   -0.1126    4.0312 H   0  0  0  0  0  0  0  0  0  0  0  0
    5.2328   -1.0299    2.5084 H   0  0  0  0  0  0  0  0  0  0  0  0
    6.5803    0.1178    2.7346 H   0  0  0  0  0  0  0  0  0  0  0  0
    4.7610    1.0776    1.2443 H   0  0  0  0  0  0  0  0  0  0  0  0
    4.9786    2.0419    2.7401 H   0  0  0  0  0  0  0  0  0  0  0  0
    1.2884   -0.4001   -0.1348 H   0  0  0  0  0  0  0  0  0  0  0  0
   -2.1579    0.0439    1.7578 H   0  0  0  0  0  0  0  0  0  0  0  0
   -2.3838    0.0772    4.2233 H   0  0  0  0  0  0  0  0  0  0  0  0
    0.0450    0.8143    6.6086 H   0  0  0  0  0  0  0  0  0  0  0  0
  1 19  1  0  0  0  0
  2  3  1  0  0  0  0
  2 23  1  0  0  0  0
  2  1  1  0  0  0  0
  4  6  1  0  0  0  0
  4  3  1  0  0  0  0
  5  4  2  0  0  0  0
  6 12  2  0  0  0  0
  7  9  2  0  0  0  0
  7  6  1  0  0  0  0
  8  7  1  0  0  0  0
  9 10  1  0  0  0  0
 10 26  1  0  0  0  0
 10 11  2  0  0  0  0
 11 16  1  0  0  0  0
 12 11  1  0  0  0  0
 12 13  1  0  0  0  0
 13 14  2  0  0  0  0
 15 13  2  0  0  0  0
 16 17  1  0  0  0  0
 16 18  1  0  0  0  0
 16 27  1  0  0  0  0
 20  1  1  0  0  0  0
 21  1  1  0  0  0  0
 22  2  1  0  0  0  0
 24  8  1  0  0  0  0
 25  9  1  0  0  0  0
M  END
