313441480.xyz
 OpenBabel08132112103D
CCOC(=O)c1c(ccc(c1OCC)S)OC(F)F
 33 33  0  0  0  0  0  0  0  0999 V2000
   -3.3823    0.0041    7.6662 C   0  0  0  0  0  0  0  0  0  0  0  0
   -3.6166   -0.9769    6.5320 C   0  0  0  0  0  0  0  0  0  0  0  0
   -2.5055   -0.9843    5.6102 O   0  0  0  0  0  0  0  0  0  0  0  0
   -2.4599    0.0006    4.6921 C   0  0  0  0  0  0  0  0  0  0  0  0
   -3.3468    0.7978    4.5163 O   0  0  0  0  0  0  0  0  0  0  0  0
   -1.1802   -0.0452    3.9119 C   0  0  0  0  0  0  0  0  0  0  0  0
    0.0588   -0.0510    4.5725 C   0  0  0  0  0  0  0  0  0  0  0  0
    1.2537   -0.0296    3.8559 C   0  0  0  0  0  0  0  0  0  0  0  0
    1.2195    0.0000    2.4634 C   0  0  0  0  0  0  0  0  0  0  0  0
   -0.0000   -0.0000    1.7732 C   0  0  0  0  0  0  0  0  0  0  0  0
   -1.2061   -0.0179    2.5045 C   0  0  0  0  0  0  0  0  0  0  0  0
   -2.3793    0.0220    1.8206 O   0  0  0  0  0  0  0  0  0  0  0  0
   -3.2557   -1.1119    1.8889 C   0  0  0  0  0  0  0  0  0  0  0  0
   -4.6756   -0.6315    1.6858 C   0  0  0  0  0  0  0  0  0  0  0  0
    0.0000    0.0000    0.0000 S   0  0  0  0  0  0  0  0  0  0  0  0
    0.0856    0.0109    5.9561 O   0  0  0  0  0  0  0  0  0  0  0  0
    0.3178   -1.1662    6.6149 C   0  0  0  0  0  0  0  0  0  0  0  0
    1.6427   -1.4632    6.6063 F   0  0  0  0  0  0  0  0  0  0  0  0
   -0.0447   -0.9803    7.8940 F   0  0  0  0  0  0  0  0  0  0  0  0
   -4.2013   -0.0708    8.3989 H   0  0  0  0  0  0  0  0  0  0  0  0
   -3.3547    1.0356    7.2864 H   0  0  0  0  0  0  0  0  0  0  0  0
   -2.4317   -0.2116    8.1741 H   0  0  0  0  0  0  0  0  0  0  0  0
   -3.6751   -2.0119    6.8964 H   0  0  0  0  0  0  0  0  0  0  0  0
   -4.5344   -0.7372    5.9756 H   0  0  0  0  0  0  0  0  0  0  0  0
    2.1977   -0.0166    4.4006 H   0  0  0  0  0  0  0  0  0  0  0  0
    2.1543    0.0271    1.8994 H   0  0  0  0  0  0  0  0  0  0  0  0
   -3.1428   -1.6141    2.8639 H   0  0  0  0  0  0  0  0  0  0  0  0
   -2.9498   -1.8354    1.1112 H   0  0  0  0  0  0  0  0  0  0  0  0
   -4.9531    0.0659    2.4892 H   0  0  0  0  0  0  0  0  0  0  0  0
   -4.7737   -0.1103    0.7212 H   0  0  0  0  0  0  0  0  0  0  0  0
   -5.3713   -1.4851    1.6895 H   0  0  0  0  0  0  0  0  0  0  0  0
   -1.3187    0.2756   -0.1099 H   0  0  0  0  0  0  0  0  0  0  0  0
   -0.2369   -2.0130    6.1800 H   0  0  0  0  0  0  0  0  0  0  0  0
  1 22  1  0  0  0  0
  1 20  1  0  0  0  0
  2 23  1  0  0  0  0
  2  1  1  0  0  0  0
  3  2  1  0  0  0  0
  4  3  1  0  0  0  0
  5  4  2  0  0  0  0
  6  7  1  0  0  0  0
  6  4  1  0  0  0  0
  7 16  1  0  0  0  0
  8 25  1  0  0  0  0
  8  7  2  0  0  0  0
  9  8  1  0  0  0  0
 10  9  2  0  0  0  0
 10 11  1  0  0  0  0
 11  6  2  0  0  0  0
 12 13  1  0  0  0  0
 12 11  1  0  0  0  0
 13 27  1  0  0  0  0
 14 31  1  0  0  0  0
 14 13  1  0  0  0  0
 14 29  1  0  0  0  0
 15 10  1  0  0  0  0
 16 17  1  0  0  0  0
 17 19  1  0  0  0  0
 18 17  1  0  0  0  0
 21  1  1  0  0  0  0
 24  2  1  0  0  0  0
 26  9  1  0  0  0  0
 28 13  1  0  0  0  0
 30 14  1  0  0  0  0
 32 15  1  0  0  0  0
 33 17  1  0  0  0  0
M  END
