313466882.xyz
 OpenBabel08132112103D
CCOc1ccc(c(c1S)C(=O)OC)OC(F)F
 30 30  0  0  0  0  0  0  0  0999 V2000
   -4.6865    0.0823    1.2664 C   0  0  0  0  0  0  0  0  0  0  0  0
   -3.6342    0.0554    2.3555 C   0  0  0  0  0  0  0  0  0  0  0  0
   -2.3590    0.0354    1.7299 O   0  0  0  0  0  0  0  0  0  0  0  0
   -1.2317    0.0091    2.4843 C   0  0  0  0  0  0  0  0  0  0  0  0
   -1.2375    0.0003    3.8816 C   0  0  0  0  0  0  0  0  0  0  0  0
   -0.0392   -0.0282    4.5981 C   0  0  0  0  0  0  0  0  0  0  0  0
    1.1706   -0.0240    3.9172 C   0  0  0  0  0  0  0  0  0  0  0  0
    1.2050    0.0000    2.5089 C   0  0  0  0  0  0  0  0  0  0  0  0
   -0.0000    0.0000    1.7784 C   0  0  0  0  0  0  0  0  0  0  0  0
    0.0000    0.0000    0.0000 S   0  0  0  0  0  0  0  0  0  0  0  0
    2.5350    0.0905    1.8307 C   0  0  0  0  0  0  0  0  0  0  0  0
    3.4255    0.8377    2.1627 O   0  0  0  0  0  0  0  0  0  0  0  0
    2.6249   -0.7474    0.7906 O   0  0  0  0  0  0  0  0  0  0  0  0
    3.8192   -0.6689    0.0110 C   0  0  0  0  0  0  0  0  0  0  0  0
    2.3492   -0.1276    4.6307 O   0  0  0  0  0  0  0  0  0  0  0  0
    2.8982    1.0409    5.1037 C   0  0  0  0  0  0  0  0  0  0  0  0
    4.0921    0.7256    5.6136 F   0  0  0  0  0  0  0  0  0  0  0  0
    2.1346    1.5408    6.1135 F   0  0  0  0  0  0  0  0  0  0  0  0
   -4.5954   -0.8025    0.6186 H   0  0  0  0  0  0  0  0  0  0  0  0
   -5.6930    0.0874    1.7116 H   0  0  0  0  0  0  0  0  0  0  0  0
   -4.5779    0.9825    0.6425 H   0  0  0  0  0  0  0  0  0  0  0  0
   -3.7490   -0.8400    2.9935 H   0  0  0  0  0  0  0  0  0  0  0  0
   -3.7163    0.9438    3.0086 H   0  0  0  0  0  0  0  0  0  0  0  0
   -2.1798    0.0028    4.4275 H   0  0  0  0  0  0  0  0  0  0  0  0
   -0.0325   -0.0578    5.6872 H   0  0  0  0  0  0  0  0  0  0  0  0
   -1.2916    0.3855   -0.0951 H   0  0  0  0  0  0  0  0  0  0  0  0
    3.9472    0.3447   -0.3967 H   0  0  0  0  0  0  0  0  0  0  0  0
    4.6973   -0.9147    0.6258 H   0  0  0  0  0  0  0  0  0  0  0  0
    3.6995   -1.3970   -0.7997 H   0  0  0  0  0  0  0  0  0  0  0  0
    3.0003    1.8061    4.3195 H   0  0  0  0  0  0  0  0  0  0  0  0
  1 20  1  0  0  0  0
  1  2  1  0  0  0  0
  2 22  1  0  0  0  0
  2 23  1  0  0  0  0
  3  2  1  0  0  0  0
  3  4  1  0  0  0  0
  4  5  1  0  0  0  0
  5 24  1  0  0  0  0
  5  6  2  0  0  0  0
  6 25  1  0  0  0  0
  7  6  1  0  0  0  0
  7 15  1  0  0  0  0
  8  7  2  0  0  0  0
  9  4  2  0  0  0  0
  9  8  1  0  0  0  0
 10  9  1  0  0  0  0
 11 12  2  0  0  0  0
 11  8  1  0  0  0  0
 13 11  1  0  0  0  0
 14 28  1  0  0  0  0
 14 13  1  0  0  0  0
 15 16  1  0  0  0  0
 16 17  1  0  0  0  0
 16 18  1  0  0  0  0
 19  1  1  0  0  0  0
 21  1  1  0  0  0  0
 26 10  1  0  0  0  0
 27 14  1  0  0  0  0
 29 14  1  0  0  0  0
 30 16  1  0  0  0  0
M  END
