313420216.xyz
 OpenBabel08132112103D
Sc1cc(C(F)F)c(c(c1)C(F)(F)F)C(=O)O
 22 22  0  0  0  0  0  0  0  0999 V2000
    0.0000    0.0000    0.0000 S   0  0  0  0  0  0  0  0  0  0  0  0
    0.0000   -0.0000    1.7698 C   0  0  0  0  0  0  0  0  0  0  0  0
    1.1721    0.0000    2.5369 C   0  0  0  0  0  0  0  0  0  0  0  0
    1.1093    0.0026    3.9282 C   0  0  0  0  0  0  0  0  0  0  0  0
    2.4019   -0.0057    4.7230 C   0  0  0  0  0  0  0  0  0  0  0  0
    2.4593   -1.1375    5.4816 F   0  0  0  0  0  0  0  0  0  0  0  0
    3.4758   -0.0163    3.8888 F   0  0  0  0  0  0  0  0  0  0  0  0
   -0.1324   -0.0144    4.5923 C   0  0  0  0  0  0  0  0  0  0  0  0
   -1.3082   -0.0032    3.8177 C   0  0  0  0  0  0  0  0  0  0  0  0
   -1.2386    0.0094    2.4248 C   0  0  0  0  0  0  0  0  0  0  0  0
   -2.6897    0.0210    4.4485 C   0  0  0  0  0  0  0  0  0  0  0  0
   -3.6128    0.4631    3.5754 F   0  0  0  0  0  0  0  0  0  0  0  0
   -2.7335    0.8426    5.5125 F   0  0  0  0  0  0  0  0  0  0  0  0
   -3.0846   -1.1939    4.8498 F   0  0  0  0  0  0  0  0  0  0  0  0
   -0.1394    0.0058    6.0948 C   0  0  0  0  0  0  0  0  0  0  0  0
    0.5018    0.7849    6.7573 O   0  0  0  0  0  0  0  0  0  0  0  0
   -0.9065   -0.9536    6.6228 O   0  0  0  0  0  0  0  0  0  0  0  0
    1.3425    0.0038   -0.1544 H   0  0  0  0  0  0  0  0  0  0  0  0
    2.1511   -0.0002    2.0584 H   0  0  0  0  0  0  0  0  0  0  0  0
    2.4867    0.8600    5.3953 H   0  0  0  0  0  0  0  0  0  0  0  0
   -2.1621    0.0394    1.8465 H   0  0  0  0  0  0  0  0  0  0  0  0
   -0.8755   -0.8460    7.5897 H   0  0  0  0  0  0  0  0  0  0  0  0
  1  2  1  0  0  0  0
  2 10  2  0  0  0  0
  2  3  1  0  0  0  0
  3  4  2  0  0  0  0
  4  8  1  0  0  0  0
  4  5  1  0  0  0  0
  5 20  1  0  0  0  0
  5  6  1  0  0  0  0
  7  5  1  0  0  0  0
  8 15  1  0  0  0  0
  9 11  1  0  0  0  0
  9  8  2  0  0  0  0
 10  9  1  0  0  0  0
 11 14  1  0  0  0  0
 11 13  1  0  0  0  0
 12 11  1  0  0  0  0
 15 17  1  0  0  0  0
 15 16  2  0  0  0  0
 17 22  1  0  0  0  0
 18  1  1  0  0  0  0
 19  3  1  0  0  0  0
 21 10  1  0  0  0  0
M  END
