313513256.xyz
 OpenBabel08132112103D
COc1ccc(c(c1[N+](=O)[O-])S)CC(=O)O
 25 25  0  0  0  0  0  0  0  0999 V2000
    2.3161    0.0105    6.0332 C   0  0  0  0  0  0  0  0  0  0  0  0
    2.2959   -0.0552    4.6219 O   0  0  0  0  0  0  0  0  0  0  0  0
    1.1223    0.0196    3.9734 C   0  0  0  0  0  0  0  0  0  0  0  0
   -0.1274    0.0797    4.5994 C   0  0  0  0  0  0  0  0  0  0  0  0
   -1.2838    0.1166    3.8219 C   0  0  0  0  0  0  0  0  0  0  0  0
   -1.2537    0.0710    2.4282 C   0  0  0  0  0  0  0  0  0  0  0  0
    0.0000    0.0000    1.7764 C   0  0  0  0  0  0  0  0  0  0  0  0
    1.1661    0.0000    2.5614 C   0  0  0  0  0  0  0  0  0  0  0  0
    2.4980    0.0170    1.9361 N   0  0  0  0  0  0  0  0  0  0  0  0
    2.7509   -0.8565    1.1112 O   0  0  0  0  0  0  0  0  0  0  0  0
    3.2625    0.8984    2.2670 O   0  0  0  0  0  0  0  0  0  0  0  0
    0.0000    0.0000    0.0000 S   0  0  0  0  0  0  0  0  0  0  0  0
   -2.5333    0.1174    1.6415 C   0  0  0  0  0  0  0  0  0  0  0  0
   -2.8491    1.5047    1.0697 C   0  0  0  0  0  0  0  0  0  0  0  0
   -2.2857    2.5120    1.3859 O   0  0  0  0  0  0  0  0  0  0  0  0
   -3.8684    1.5270    0.1812 O   0  0  0  0  0  0  0  0  0  0  0  0
    3.3723   -0.0328    6.3266 H   0  0  0  0  0  0  0  0  0  0  0  0
    1.8767    0.9543    6.3988 H   0  0  0  0  0  0  0  0  0  0  0  0
    1.7781   -0.8401    6.4867 H   0  0  0  0  0  0  0  0  0  0  0  0
   -0.2042    0.0939    5.6849 H   0  0  0  0  0  0  0  0  0  0  0  0
   -2.2527    0.1721    4.3239 H   0  0  0  0  0  0  0  0  0  0  0  0
    1.1979   -0.6136   -0.1357 H   0  0  0  0  0  0  0  0  0  0  0  0
   -3.3822   -0.1629    2.2880 H   0  0  0  0  0  0  0  0  0  0  0  0
   -2.5058   -0.6132    0.8144 H   0  0  0  0  0  0  0  0  0  0  0  0
   -4.1891    0.6307    0.0069 H   0  0  0  0  0  0  0  0  0  0  0  0
  1 17  1  0  0  0  0
  1 18  1  0  0  0  0
  1 19  1  0  0  0  0
  2  1  1  0  0  0  0
  3  4  1  0  0  0  0
  3  2  1  0  0  0  0
  4 20  1  0  0  0  0
  5 21  1  0  0  0  0
  5  4  2  0  0  0  0
  6  5  1  0  0  0  0
  7  6  2  0  0  0  0
  7  8  1  0  0  0  0
  8  3  2  0  0  0  0
  9 11  2  0  0  0  0
  9  8  1  0  0  0  0
 10  9  2  0  0  0  0
 12  7  1  0  0  0  0
 13 23  1  0  0  0  0
 13  6  1  0  0  0  0
 14 15  2  0  0  0  0
 14 13  1  0  0  0  0
 16 14  1  0  0  0  0
 22 12  1  0  0  0  0
 24 13  1  0  0  0  0
 25 16  1  0  0  0  0
M  END
