313581844.xyz
 OpenBabel08132112103D
SCCCCCSC
 22 21  0  0  0  0  0  0  0  0999 V2000
    0.0000    0.0000    0.0000 S   0  0  0  0  0  0  0  0  0  0  0  0
    0.0000    0.0000    1.8447 C   0  0  0  0  0  0  0  0  0  0  0  0
    1.4310    0.0000    2.3792 C   0  0  0  0  0  0  0  0  0  0  0  0
    2.2310    1.2642    2.0584 C   0  0  0  0  0  0  0  0  0  0  0  0
    3.6509    1.2316    2.6268 C   0  0  0  0  0  0  0  0  0  0  0  0
    4.4450    2.4947    2.3025 C   0  0  0  0  0  0  0  0  0  0  0  0
    6.1730    2.4969    2.8978 S   0  0  0  0  0  0  0  0  0  0  0  0
    5.9016    2.6765    4.6885 C   0  0  0  0  0  0  0  0  0  0  0  0
   -1.3437   -0.0133   -0.1519 H   0  0  0  0  0  0  0  0  0  0  0  0
   -0.5341   -0.8948    2.1967 H   0  0  0  0  0  0  0  0  0  0  0  0
   -0.5422    0.8885    2.2053 H   0  0  0  0  0  0  0  0  0  0  0  0
    1.3811   -0.1303    3.4751 H   0  0  0  0  0  0  0  0  0  0  0  0
    1.9644   -0.8856    1.9906 H   0  0  0  0  0  0  0  0  0  0  0  0
    2.2749    1.4077    0.9652 H   0  0  0  0  0  0  0  0  0  0  0  0
    1.6920    2.1443    2.4549 H   0  0  0  0  0  0  0  0  0  0  0  0
    4.1955    0.3573    2.2316 H   0  0  0  0  0  0  0  0  0  0  0  0
    3.6032    1.0930    3.7211 H   0  0  0  0  0  0  0  0  0  0  0  0
    4.5264    2.6249    1.2111 H   0  0  0  0  0  0  0  0  0  0  0  0
    3.9353    3.3930    2.6913 H   0  0  0  0  0  0  0  0  0  0  0  0
    5.3824    1.8074    5.1197 H   0  0  0  0  0  0  0  0  0  0  0  0
    5.3341    3.5933    4.9138 H   0  0  0  0  0  0  0  0  0  0  0  0
    6.8946    2.7545    5.1538 H   0  0  0  0  0  0  0  0  0  0  0  0
  1  2  1  0  0  0  0
  2 10  1  0  0  0  0
  2 11  1  0  0  0  0
  2  3  1  0  0  0  0
  3 12  1  0  0  0  0
  4  3  1  0  0  0  0
  4 15  1  0  0  0  0
  4  5  1  0  0  0  0
  5 17  1  0  0  0  0
  6  5  1  0  0  0  0
  6 19  1  0  0  0  0
  6  7  1  0  0  0  0
  7  8  1  0  0  0  0
  8 21  1  0  0  0  0
  8 20  1  0  0  0  0
  8 22  1  0  0  0  0
  9  1  1  0  0  0  0
 13  3  1  0  0  0  0
 14  4  1  0  0  0  0
 16  5  1  0  0  0  0
 18  6  1  0  0  0  0
M  END
