313518631.xyz
 OpenBabel08132112103D
OC(=O)Cc1cc(cc(c1C)S)OC(F)(F)F
 26 26  0  0  0  0  0  0  0  0999 V2000
    3.9463   -1.4361    5.7948 O   0  0  0  0  0  0  0  0  0  0  0  0
    3.0198   -1.3765    4.8180 C   0  0  0  0  0  0  0  0  0  0  0  0
    2.8399   -2.2711    4.0324 O   0  0  0  0  0  0  0  0  0  0  0  0
    2.2846   -0.0478    4.8517 C   0  0  0  0  0  0  0  0  0  0  0  0
    1.0715    0.0084    3.9576 C   0  0  0  0  0  0  0  0  0  0  0  0
   -0.1873    0.0758    4.5616 C   0  0  0  0  0  0  0  0  0  0  0  0
   -1.3396    0.1080    3.7834 C   0  0  0  0  0  0  0  0  0  0  0  0
   -1.2628    0.0465    2.3964 C   0  0  0  0  0  0  0  0  0  0  0  0
   -0.0000    0.0000    1.7892 C   0  0  0  0  0  0  0  0  0  0  0  0
    1.1895   -0.0000    2.5500 C   0  0  0  0  0  0  0  0  0  0  0  0
    2.5311   -0.0242    1.8694 C   0  0  0  0  0  0  0  0  0  0  0  0
    0.0000    0.0000    0.0000 S   0  0  0  0  0  0  0  0  0  0  0  0
   -2.5437    0.1350    4.4837 O   0  0  0  0  0  0  0  0  0  0  0  0
   -3.6058    0.8202    4.0131 C   0  0  0  0  0  0  0  0  0  0  0  0
   -4.1819    0.2173    2.9565 F   0  0  0  0  0  0  0  0  0  0  0  0
   -4.5063    0.8890    4.9845 F   0  0  0  0  0  0  0  0  0  0  0  0
   -3.2839    2.0622    3.6312 F   0  0  0  0  0  0  0  0  0  0  0  0
    4.3897   -2.2978    5.7101 H   0  0  0  0  0  0  0  0  0  0  0  0
    2.0115    0.1547    5.8977 H   0  0  0  0  0  0  0  0  0  0  0  0
    3.0250    0.7274    4.5891 H   0  0  0  0  0  0  0  0  0  0  0  0
   -0.2883    0.1001    5.6477 H   0  0  0  0  0  0  0  0  0  0  0  0
   -2.1615    0.0124    1.7835 H   0  0  0  0  0  0  0  0  0  0  0  0
    3.3306    0.3612    2.5154 H   0  0  0  0  0  0  0  0  0  0  0  0
    2.5105    0.5820    0.9521 H   0  0  0  0  0  0  0  0  0  0  0  0
    2.8152   -1.0536    1.5942 H   0  0  0  0  0  0  0  0  0  0  0  0
    0.9733   -0.9218   -0.1770 H   0  0  0  0  0  0  0  0  0  0  0  0
  2  4  1  0  0  0  0
  2  1  1  0  0  0  0
  3  2  2  0  0  0  0
  4 19  1  0  0  0  0
  5  6  1  0  0  0  0
  5  4  1  0  0  0  0
  6 21  1  0  0  0  0
  7 13  1  0  0  0  0
  7  6  2  0  0  0  0
  8  7  1  0  0  0  0
  9  8  2  0  0  0  0
  9 10  1  0  0  0  0
 10  5  2  0  0  0  0
 11 23  1  0  0  0  0
 11 10  1  0  0  0  0
 12  9  1  0  0  0  0
 14 13  1  0  0  0  0
 14 16  1  0  0  0  0
 15 14  1  0  0  0  0
 17 14  1  0  0  0  0
 18  1  1  0  0  0  0
 20  4  1  0  0  0  0
 22  8  1  0  0  0  0
 24 11  1  0  0  0  0
 25 11  1  0  0  0  0
 26 12  1  0  0  0  0
M  END
