313513245.xyz
 OpenBabel08132112103D
COC(=O)Cc1ccc(c(c1C(F)F)OC)S
 29 29  0  0  0  0  0  0  0  0999 V2000
   -0.4056   -2.5759    8.6460 C   0  0  0  0  0  0  0  0  0  0  0  0
   -0.3629   -1.3182    7.9739 O   0  0  0  0  0  0  0  0  0  0  0  0
    0.0982   -1.3419    6.7127 C   0  0  0  0  0  0  0  0  0  0  0  0
    0.4838   -2.3393    6.1587 O   0  0  0  0  0  0  0  0  0  0  0  0
    0.1112    0.0568    6.1163 C   0  0  0  0  0  0  0  0  0  0  0  0
    0.0490    0.0455    4.6098 C   0  0  0  0  0  0  0  0  0  0  0  0
    1.2310    0.0382    3.8637 C   0  0  0  0  0  0  0  0  0  0  0  0
    1.2142   -0.0000    2.4707 C   0  0  0  0  0  0  0  0  0  0  0  0
    0.0000    0.0000    1.7759 C   0  0  0  0  0  0  0  0  0  0  0  0
   -1.1983    0.0201    2.5143 C   0  0  0  0  0  0  0  0  0  0  0  0
   -1.1771    0.0067    3.9178 C   0  0  0  0  0  0  0  0  0  0  0  0
   -2.4980   -0.0276    4.6384 C   0  0  0  0  0  0  0  0  0  0  0  0
   -2.4922   -0.9455    5.6494 F   0  0  0  0  0  0  0  0  0  0  0  0
   -2.7699    1.1878    5.2149 F   0  0  0  0  0  0  0  0  0  0  0  0
   -2.4017    0.0303    1.8506 O   0  0  0  0  0  0  0  0  0  0  0  0
   -2.9015    1.3362    1.5608 C   0  0  0  0  0  0  0  0  0  0  0  0
    0.0000    0.0000    0.0000 S   0  0  0  0  0  0  0  0  0  0  0  0
   -0.7870   -2.3724    9.6540 H   0  0  0  0  0  0  0  0  0  0  0  0
    0.5966   -3.0277    8.6984 H   0  0  0  0  0  0  0  0  0  0  0  0
   -1.0735   -3.2733    8.1183 H   0  0  0  0  0  0  0  0  0  0  0  0
    1.0550    0.5256    6.4415 H   0  0  0  0  0  0  0  0  0  0  0  0
   -0.7014    0.6406    6.5645 H   0  0  0  0  0  0  0  0  0  0  0  0
    2.1897    0.0470    4.3869 H   0  0  0  0  0  0  0  0  0  0  0  0
    2.1528   -0.0314    1.9131 H   0  0  0  0  0  0  0  0  0  0  0  0
   -3.3265   -0.2767    3.9616 H   0  0  0  0  0  0  0  0  0  0  0  0
   -3.8536    1.2029    1.0298 H   0  0  0  0  0  0  0  0  0  0  0  0
   -2.1980    1.8942    0.9204 H   0  0  0  0  0  0  0  0  0  0  0  0
   -3.0748    1.9050    2.4903 H   0  0  0  0  0  0  0  0  0  0  0  0
   -1.2744   -0.4368   -0.1177 H   0  0  0  0  0  0  0  0  0  0  0  0
  1 19  1  0  0  0  0
  1 18  1  0  0  0  0
  2  1  1  0  0  0  0
  3  2  1  0  0  0  0
  4  3  2  0  0  0  0
  5 21  1  0  0  0  0
  5 22  1  0  0  0  0
  5  3  1  0  0  0  0
  6  5  1  0  0  0  0
  7 23  1  0  0  0  0
  7  6  2  0  0  0  0
  8  7  1  0  0  0  0
  9  8  2  0  0  0  0
  9 10  1  0  0  0  0
 10 11  2  0  0  0  0
 11  6  1  0  0  0  0
 11 12  1  0  0  0  0
 12 14  1  0  0  0  0
 12 13  1  0  0  0  0
 15 10  1  0  0  0  0
 16 15  1  0  0  0  0
 16 28  1  0  0  0  0
 17  9  1  0  0  0  0
 20  1  1  0  0  0  0
 24  8  1  0  0  0  0
 25 12  1  0  0  0  0
 26 16  1  0  0  0  0
 27 16  1  0  0  0  0
 29 17  1  0  0  0  0
M  END
