313514777.xyz
 OpenBabel08132112103D
COC(=O)Cc1c(cc(cc1C(F)(F)F)S)C(F)F
 28 28  0  0  0  0  0  0  0  0999 V2000
    0.7773    2.7320    8.4910 C   0  0  0  0  0  0  0  0  0  0  0  0
    0.8301    1.4688    7.8241 O   0  0  0  0  0  0  0  0  0  0  0  0
    0.0812    1.3502    6.7231 C   0  0  0  0  0  0  0  0  0  0  0  0
   -0.6209    2.2336    6.2902 O   0  0  0  0  0  0  0  0  0  0  0  0
    0.1887   -0.0417    6.1245 C   0  0  0  0  0  0  0  0  0  0  0  0
    0.1257   -0.0288    4.6117 C   0  0  0  0  0  0  0  0  0  0  0  0
   -1.1085   -0.0004    3.9357 C   0  0  0  0  0  0  0  0  0  0  0  0
   -1.1695    0.0105    2.5417 C   0  0  0  0  0  0  0  0  0  0  0  0
   -0.0000    0.0000    1.7739 C   0  0  0  0  0  0  0  0  0  0  0  0
    1.2359    0.0000    2.4312 C   0  0  0  0  0  0  0  0  0  0  0  0
    1.2942   -0.0091    3.8255 C   0  0  0  0  0  0  0  0  0  0  0  0
    2.6573    0.0299    4.4812 C   0  0  0  0  0  0  0  0  0  0  0  0
    2.9107   -1.0879    5.1927 F   0  0  0  0  0  0  0  0  0  0  0  0
    2.7614    1.0683    5.3369 F   0  0  0  0  0  0  0  0  0  0  0  0
    3.6495    0.1560    3.5886 F   0  0  0  0  0  0  0  0  0  0  0  0
    0.0000    0.0000    0.0000 S   0  0  0  0  0  0  0  0  0  0  0  0
   -2.4049    0.0529    4.7175 C   0  0  0  0  0  0  0  0  0  0  0  0
   -2.5816   -1.1069    5.4273 F   0  0  0  0  0  0  0  0  0  0  0  0
   -3.4724    0.1745    3.8863 F   0  0  0  0  0  0  0  0  0  0  0  0
    1.4296    2.6409    9.3674 H   0  0  0  0  0  0  0  0  0  0  0  0
    1.1358    3.5325    7.8272 H   0  0  0  0  0  0  0  0  0  0  0  0
   -0.2523    2.9672    8.7988 H   0  0  0  0  0  0  0  0  0  0  0  0
    1.0982   -0.5212    6.4972 H   0  0  0  0  0  0  0  0  0  0  0  0
   -0.6528   -0.6249    6.5263 H   0  0  0  0  0  0  0  0  0  0  0  0
   -2.1478    0.0362    2.0624 H   0  0  0  0  0  0  0  0  0  0  0  0
    2.1625    0.0148    1.8574 H   0  0  0  0  0  0  0  0  0  0  0  0
   -1.3422    0.0242   -0.1536 H   0  0  0  0  0  0  0  0  0  0  0  0
   -2.4195    0.8957    5.4252 H   0  0  0  0  0  0  0  0  0  0  0  0
  1 22  1  0  0  0  0
  1 20  1  0  0  0  0
  2  1  1  0  0  0  0
  3  2  1  0  0  0  0
  4  3  2  0  0  0  0
  5 23  1  0  0  0  0
  5 24  1  0  0  0  0
  5  3  1  0  0  0  0
  6  5  1  0  0  0  0
  7  6  1  0  0  0  0
  7 17  1  0  0  0  0
  8  7  2  0  0  0  0
  9 10  2  0  0  0  0
  9  8  1  0  0  0  0
 10 11  1  0  0  0  0
 11 12  1  0  0  0  0
 11  6  2  0  0  0  0
 12 13  1  0  0  0  0
 12 14  1  0  0  0  0
 15 12  1  0  0  0  0
 16  9  1  0  0  0  0
 17 28  1  0  0  0  0
 17 18  1  0  0  0  0
 19 17  1  0  0  0  0
 21  1  1  0  0  0  0
 25  8  1  0  0  0  0
 26 10  1  0  0  0  0
 27 16  1  0  0  0  0
M  END
