313514934.xyz
 OpenBabel08132112103D
Sc1ccc2c(c1)ccn2C
 20 21  0  0  0  0  0  0  0  0999 V2000
    0.0000    0.0000    0.0000 S   0  0  0  0  0  0  0  0  0  0  0  0
   -0.0000    0.0000    1.7937 C   0  0  0  0  0  0  0  0  0  0  0  0
   -1.2183    0.0684    2.5137 C   0  0  0  0  0  0  0  0  0  0  0  0
   -1.2323    0.1133    3.9033 C   0  0  0  0  0  0  0  0  0  0  0  0
    0.0002    0.1217    4.5707 C   0  0  0  0  0  0  0  0  0  0  0  0
    1.2392    0.0743    3.8659 C   0  0  0  0  0  0  0  0  0  0  0  0
    1.2242   -0.0000    2.4611 C   0  0  0  0  0  0  0  0  0  0  0  0
    2.2783    0.0975    4.8590 C   0  0  0  0  0  0  0  0  0  0  0  0
    1.6555    0.1577    6.0833 C   0  0  0  0  0  0  0  0  0  0  0  0
    0.2813    0.1720    5.9207 N   0  0  0  0  0  0  0  0  0  0  0  0
   -0.7060    0.2333    6.9719 C   0  0  0  0  0  0  0  0  0  0  0  0
   -0.8798   -1.0157   -0.1651 H   0  0  0  0  0  0  0  0  0  0  0  0
   -2.1599    0.0916    1.9617 H   0  0  0  0  0  0  0  0  0  0  0  0
   -2.1778    0.1548    4.4479 H   0  0  0  0  0  0  0  0  0  0  0  0
    2.1558   -0.0666    1.8956 H   0  0  0  0  0  0  0  0  0  0  0  0
    3.3516    0.0730    4.6860 H   0  0  0  0  0  0  0  0  0  0  0  0
    2.0846    0.1926    7.0834 H   0  0  0  0  0  0  0  0  0  0  0  0
   -0.1993    0.2611    7.9455 H   0  0  0  0  0  0  0  0  0  0  0  0
   -1.3673   -0.6490    6.9487 H   0  0  0  0  0  0  0  0  0  0  0  0
   -1.3316    1.1368    6.8790 H   0  0  0  0  0  0  0  0  0  0  0  0
  1  2  1  0  0  0  0
  2  7  2  0  0  0  0
  2  3  1  0  0  0  0
  3  4  2  0  0  0  0
  4 14  1  0  0  0  0
  4  5  1  0  0  0  0
  5 10  1  0  0  0  0
  6  5  2  0  0  0  0
  6  8  1  0  0  0  0
  7  6  1  0  0  0  0
  8  9  2  0  0  0  0
  9 17  1  0  0  0  0
 10  9  1  0  0  0  0
 10 11  1  0  0  0  0
 11 18  1  0  0  0  0
 12  1  1  0  0  0  0
 13  3  1  0  0  0  0
 15  7  1  0  0  0  0
 16  8  1  0  0  0  0
 19 11  1  0  0  0  0
 20 11  1  0  0  0  0
M  END
