313516820.xyz
 OpenBabel08132112103D
COC(=O)c1cc(S)c(cc1[N+](=O)[O-])C(F)F
 24 24  0  0  0  0  0  0  0  0999 V2000
   -3.7159    1.0249    6.3534 C   0  0  0  0  0  0  0  0  0  0  0  0
   -2.5381    0.9521    5.5464 O   0  0  0  0  0  0  0  0  0  0  0  0
   -2.5296    0.0146    4.5950 C   0  0  0  0  0  0  0  0  0  0  0  0
   -3.4807   -0.6477    4.2666 O   0  0  0  0  0  0  0  0  0  0  0  0
   -1.1975   -0.0429    3.9004 C   0  0  0  0  0  0  0  0  0  0  0  0
   -1.1971   -0.0208    2.5066 C   0  0  0  0  0  0  0  0  0  0  0  0
   -0.0000    0.0000    1.7741 C   0  0  0  0  0  0  0  0  0  0  0  0
    0.0000    0.0000    0.0000 S   0  0  0  0  0  0  0  0  0  0  0  0
    1.2296   -0.0000    2.4680 C   0  0  0  0  0  0  0  0  0  0  0  0
    1.2352   -0.0540    3.8605 C   0  0  0  0  0  0  0  0  0  0  0  0
    0.0359   -0.0935    4.5636 C   0  0  0  0  0  0  0  0  0  0  0  0
    0.1066   -0.2715    6.0226 N   0  0  0  0  0  0  0  0  0  0  0  0
    1.0817    0.1836    6.5953 O   0  0  0  0  0  0  0  0  0  0  0  0
   -0.7969   -0.8978    6.5529 O   0  0  0  0  0  0  0  0  0  0  0  0
    2.5348    0.0701    1.7118 C   0  0  0  0  0  0  0  0  0  0  0  0
    2.6800   -1.0312    0.9222 F   0  0  0  0  0  0  0  0  0  0  0  0
    3.5868    0.1132    2.5641 F   0  0  0  0  0  0  0  0  0  0  0  0
   -4.6091    1.1663    5.7280 H   0  0  0  0  0  0  0  0  0  0  0  0
   -3.8278    0.0983    6.9357 H   0  0  0  0  0  0  0  0  0  0  0  0
   -3.5721    1.8800    7.0239 H   0  0  0  0  0  0  0  0  0  0  0  0
   -2.1605   -0.0183    1.9941 H   0  0  0  0  0  0  0  0  0  0  0  0
   -1.2828    0.4051   -0.1328 H   0  0  0  0  0  0  0  0  0  0  0  0
    2.1759   -0.0671    4.4082 H   0  0  0  0  0  0  0  0  0  0  0  0
    2.5791    0.9577    1.0549 H   0  0  0  0  0  0  0  0  0  0  0  0
  1 19  1  0  0  0  0
  1 20  1  0  0  0  0
  2  1  1  0  0  0  0
  3  2  1  0  0  0  0
  4  3  2  0  0  0  0
  5 11  1  0  0  0  0
  5  3  1  0  0  0  0
  6  5  2  0  0  0  0
  7  9  2  0  0  0  0
  7  6  1  0  0  0  0
  8  7  1  0  0  0  0
  9 10  1  0  0  0  0
 10 23  1  0  0  0  0
 10 11  2  0  0  0  0
 11 12  1  0  0  0  0
 12 14  2  0  0  0  0
 12 13  2  0  0  0  0
 15  9  1  0  0  0  0
 15 17  1  0  0  0  0
 16 15  1  0  0  0  0
 18  1  1  0  0  0  0
 21  6  1  0  0  0  0
 22  8  1  0  0  0  0
 24 15  1  0  0  0  0
M  END
