313560428.xyz
 OpenBabel08132112103D
SCCCn1cc(cc(c1=O)Br)[N+](=O)[O-]
 24 24  0  0  0  0  0  0  0  0999 V2000
    0.0000    0.0000    0.0000 S   0  0  0  0  0  0  0  0  0  0  0  0
   -0.0000   -0.0000    1.8321 C   0  0  0  0  0  0  0  0  0  0  0  0
    1.3957    0.0000    2.4483 C   0  0  0  0  0  0  0  0  0  0  0  0
    1.3389    0.0730    3.9755 C   0  0  0  0  0  0  0  0  0  0  0  0
    2.6766    0.0165    4.5805 N   0  0  0  0  0  0  0  0  0  0  0  0
    3.3139    1.1543    4.9259 C   0  0  0  0  0  0  0  0  0  0  0  0
    4.5786    1.1138    5.4541 C   0  0  0  0  0  0  0  0  0  0  0  0
    5.2417   -0.1269    5.6460 C   0  0  0  0  0  0  0  0  0  0  0  0
    4.5995   -1.2780    5.2919 C   0  0  0  0  0  0  0  0  0  0  0  0
    3.2527   -1.2849    4.7134 C   0  0  0  0  0  0  0  0  0  0  0  0
    2.6254   -2.2622    4.3561 O   0  0  0  0  0  0  0  0  0  0  0  0
    5.4099   -2.9658    5.5121 Br  0  0  0  0  0  0  0  0  0  0  0  0
    5.2298    2.3631    5.8227 N   0  0  0  0  0  0  0  0  0  0  0  0
    6.3550    2.2885    6.2910 O   0  0  0  0  0  0  0  0  0  0  0  0
    4.6102    3.4023    5.6395 O   0  0  0  0  0  0  0  0  0  0  0  0
    0.5578   -1.2241   -0.1491 H   0  0  0  0  0  0  0  0  0  0  0  0
   -0.5500    0.9151    2.1058 H   0  0  0  0  0  0  0  0  0  0  0  0
   -0.5937   -0.8515    2.1996 H   0  0  0  0  0  0  0  0  0  0  0  0
    1.9757    0.8497    2.0522 H   0  0  0  0  0  0  0  0  0  0  0  0
    1.9257   -0.9217    2.1624 H   0  0  0  0  0  0  0  0  0  0  0  0
    0.8614    1.0051    4.3108 H   0  0  0  0  0  0  0  0  0  0  0  0
    0.7694   -0.7772    4.3734 H   0  0  0  0  0  0  0  0  0  0  0  0
    2.7979    2.1026    4.7777 H   0  0  0  0  0  0  0  0  0  0  0  0
    6.2455   -0.1299    6.0698 H   0  0  0  0  0  0  0  0  0  0  0  0
  1  2  1  0  0  0  0
  2 17  1  0  0  0  0
  2 18  1  0  0  0  0
  2  3  1  0  0  0  0
  3  4  1  0  0  0  0
  4 21  1  0  0  0  0
  4 22  1  0  0  0  0
  4  5  1  0  0  0  0
  5 10  1  0  0  0  0
  5  6  1  0  0  0  0
  6  7  2  0  0  0  0
  7  8  1  0  0  0  0
  7 13  1  0  0  0  0
  8 24  1  0  0  0  0
  9 12  1  0  0  0  0
  9  8  2  0  0  0  0
 10  9  1  0  0  0  0
 11 10  2  0  0  0  0
 13 14  2  0  0  0  0
 15 13  2  0  0  0  0
 16  1  1  0  0  0  0
 19  3  1  0  0  0  0
 20  3  1  0  0  0  0
 23  6  1  0  0  0  0
M  END
