313531289.xyz
 OpenBabel08132112103D
Cc1onc(c1Cn1c(C)cnc1S)C
 28 29  0  0  1  0  0  0  0  0999 V2000
   -5.5808   -0.6958    3.1440 C   0  0  0  0  0  0  0  0  0  0  0  0
   -4.4533   -1.6049    2.8085 C   0  0  0  0  0  0  0  0  0  0  0  0
   -4.6496   -2.9215    2.9974 O   0  0  0  0  0  0  0  0  0  0  0  0
   -3.5035   -3.6230    2.6519 N   0  0  0  0  0  0  0  0  0  0  0  0
   -2.6317   -2.7273    2.2530 C   0  0  0  0  0  0  0  0  0  0  0  0
   -3.1877   -1.4021    2.3269 C   0  0  0  0  0  0  0  0  0  0  0  0
   -2.5207   -0.1084    1.9718 C   0  0  0  0  0  0  0  0  0  0  0  0
   -1.1673   -0.0085    2.4959 N   0  0  0  0  0  0  0  0  0  0  0  0
   -0.7997   -0.0204    3.8426 C   0  0  2  0  0  0  0  0  0  0  0  0
   -1.7878   -0.0277    4.9579 C   0  0  0  0  0  0  0  0  0  0  0  0
    0.5767   -0.0132    3.8303 C   0  0  0  0  0  0  0  0  0  0  0  0
    1.0609   -0.0000    2.5396 N   0  0  0  0  0  0  0  0  0  0  0  0
    0.0000   -0.0000    1.7713 C   0  0  0  0  0  0  0  0  0  0  0  0
    0.0000    0.0000    0.0000 S   0  0  0  0  0  0  0  0  0  0  0  0
   -1.2581   -3.1342    1.8281 C   0  0  0  0  0  0  0  0  0  0  0  0
   -5.9639   -0.9128    4.1532 H   0  0  0  0  0  0  0  0  0  0  0  0
   -5.2582    0.3536    3.1076 H   0  0  0  0  0  0  0  0  0  0  0  0
   -6.4173   -0.8235    2.4377 H   0  0  0  0  0  0  0  0  0  0  0  0
   -3.1205    0.7403    2.3373 H   0  0  0  0  0  0  0  0  0  0  0  0
   -2.4531    0.0111    0.8791 H   0  0  0  0  0  0  0  0  0  0  0  0
   -2.5003    0.8124    4.8856 H   0  0  0  0  0  0  0  0  0  0  0  0
   -2.3797   -0.9573    4.9851 H   0  0  0  0  0  0  0  0  0  0  0  0
   -1.2583    0.0675    5.9160 H   0  0  0  0  0  0  0  0  0  0  0  0
    1.2445   -0.0099    4.6908 H   0  0  0  0  0  0  0  0  0  0  0  0
    1.3465   -0.0901   -0.0529 H   0  0  0  0  0  0  0  0  0  0  0  0
   -0.5036   -2.7579    2.5369 H   0  0  0  0  0  0  0  0  0  0  0  0
   -1.0068   -2.7182    0.8408 H   0  0  0  0  0  0  0  0  0  0  0  0
   -1.1920   -4.2295    1.7890 H   0  0  0  0  0  0  0  0  0  0  0  0
  1 16  1  0  0  0  0
  2  3  1  0  0  0  0
  2  1  1  0  0  0  0
  4  3  1  0  0  0  0
  5  6  1  0  0  0  0
  5  4  2  0  0  0  0
  6  2  2  0  0  0  0
  7  6  1  0  0  0  0
  7 19  1  0  0  0  0
  7  8  1  0  0  0  0
  8  9  1  0  0  0  0
  9 10  1  1  0  0  0
 10 22  1  0  0  0  0
 10 23  1  0  0  0  0
 11  9  1  0  0  0  0
 11 24  1  0  0  0  0
 12 11  2  0  0  0  0
 13  8  1  0  0  0  0
 13 12  2  0  0  0  0
 14 13  1  0  0  0  0
 15  5  1  0  0  0  0
 15 26  1  0  0  0  0
 17  1  1  0  0  0  0
 18  1  1  0  0  0  0
 20  7  1  0  0  0  0
 21 10  1  0  0  0  0
 25 14  1  0  0  0  0
 27 15  1  0  0  0  0
 28 15  1  0  0  0  0
M  RAD  1   9   2
M  END
