313505826.xyz
 OpenBabel08132112103D
CCOC(=O)c1ccc(c(c1[N+](=O)[O-])S)C(F)(F)F
 27 27  0  0  0  0  0  0  0  0999 V2000
   -4.7137   -1.7193    5.9522 C   0  0  0  0  0  0  0  0  0  0  0  0
   -4.6535   -0.6044    4.9254 C   0  0  0  0  0  0  0  0  0  0  0  0
   -3.3800   -0.5826    4.2469 O   0  0  0  0  0  0  0  0  0  0  0  0
   -2.3811    0.0928    4.8193 C   0  0  0  0  0  0  0  0  0  0  0  0
   -2.4216    0.5993    5.9132 O   0  0  0  0  0  0  0  0  0  0  0  0
   -1.1481    0.0949    3.9593 C   0  0  0  0  0  0  0  0  0  0  0  0
    0.0836    0.1022    4.6118 C   0  0  0  0  0  0  0  0  0  0  0  0
    1.2619    0.0610    3.8716 C   0  0  0  0  0  0  0  0  0  0  0  0
    1.2323    0.0000    2.4784 C   0  0  0  0  0  0  0  0  0  0  0  0
   -0.0000    0.0000    1.7777 C   0  0  0  0  0  0  0  0  0  0  0  0
   -1.1717    0.0734    2.5567 C   0  0  0  0  0  0  0  0  0  0  0  0
   -2.4809    0.2414    1.8900 N   0  0  0  0  0  0  0  0  0  0  0  0
   -3.0996    1.2511    2.1560 O   0  0  0  0  0  0  0  0  0  0  0  0
   -2.8416   -0.6275    1.1109 O   0  0  0  0  0  0  0  0  0  0  0  0
    0.0000    0.0000    0.0000 S   0  0  0  0  0  0  0  0  0  0  0  0
    2.5516   -0.0956    1.7342 C   0  0  0  0  0  0  0  0  0  0  0  0
    2.6884   -1.2812    1.1238 F   0  0  0  0  0  0  0  0  0  0  0  0
    3.5954    0.0456    2.5668 F   0  0  0  0  0  0  0  0  0  0  0  0
    2.6612    0.8599    0.7961 F   0  0  0  0  0  0  0  0  0  0  0  0
   -5.7211   -1.7627    6.3950 H   0  0  0  0  0  0  0  0  0  0  0  0
   -4.4993   -2.6933    5.4862 H   0  0  0  0  0  0  0  0  0  0  0  0
   -3.9903   -1.5427    6.7613 H   0  0  0  0  0  0  0  0  0  0  0  0
   -4.8176    0.3780    5.3911 H   0  0  0  0  0  0  0  0  0  0  0  0
   -5.3864   -0.7500    4.1201 H   0  0  0  0  0  0  0  0  0  0  0  0
    0.0978    0.1357    5.7015 H   0  0  0  0  0  0  0  0  0  0  0  0
    2.2254    0.0635    4.3800 H   0  0  0  0  0  0  0  0  0  0  0  0
   -1.2257   -0.5584   -0.1167 H   0  0  0  0  0  0  0  0  0  0  0  0
  1 20  1  0  0  0  0
  1 22  1  0  0  0  0
  2 23  1  0  0  0  0
  2  1  1  0  0  0  0
  3  4  1  0  0  0  0
  3  2  1  0  0  0  0
  4  5  2  0  0  0  0
  6  7  1  0  0  0  0
  6  4  1  0  0  0  0
  7 25  1  0  0  0  0
  8 26  1  0  0  0  0
  8  7  2  0  0  0  0
  9  8  1  0  0  0  0
 10  9  2  0  0  0  0
 10 11  1  0  0  0  0
 11  6  2  0  0  0  0
 12 13  2  0  0  0  0
 12 11  1  0  0  0  0
 14 12  2  0  0  0  0
 15 10  1  0  0  0  0
 16  9  1  0  0  0  0
 16 18  1  0  0  0  0
 17 16  1  0  0  0  0
 19 16  1  0  0  0  0
 21  1  1  0  0  0  0
 24  2  1  0  0  0  0
 27 15  1  0  0  0  0
M  END
