313559987.xyz
 OpenBabel08132112103D
SCC1(CCC1)CSc1cc(nn1C)C
 33 34  0  0  0  0  0  0  0  0999 V2000
    0.0000    0.0000    0.0000 S   0  0  0  0  0  0  0  0  0  0  0  0
    0.0000   -0.0000    1.8444 C   0  0  0  0  0  0  0  0  0  0  0  0
    1.4176   -0.0000    2.4277 C   0  0  0  0  0  0  0  0  0  0  0  0
    2.3868    1.0992    1.8861 C   0  0  0  0  0  0  0  0  0  0  0  0
    3.4222    0.0033    1.5241 C   0  0  0  0  0  0  0  0  0  0  0  0
    2.3888   -1.0956    1.8824 C   0  0  0  0  0  0  0  0  0  0  0  0
    1.2543   -0.0027    3.9513 C   0  0  0  0  0  0  0  0  0  0  0  0
    2.8592   -0.0031    4.8380 S   0  0  0  0  0  0  0  0  0  0  0  0
    2.2623   -0.0084    6.4914 C   0  0  0  0  0  0  0  0  0  0  0  0
    0.9867   -0.0074    7.0495 C   0  0  0  0  0  0  0  0  0  0  0  0
    1.2104   -0.0136    8.4523 C   0  0  0  0  0  0  0  0  0  0  0  0
    2.5117   -0.0181    8.7302 N   0  0  0  0  0  0  0  0  0  0  0  0
    3.1401   -0.0150    7.5342 N   0  0  0  0  0  0  0  0  0  0  0  0
    4.5828   -0.0187    7.4604 C   0  0  0  0  0  0  0  0  0  0  0  0
    0.1843   -0.0153    9.5449 C   0  0  0  0  0  0  0  0  0  0  0  0
   -1.3453    0.0102   -0.1316 H   0  0  0  0  0  0  0  0  0  0  0  0
   -0.5415    0.8927    2.1952 H   0  0  0  0  0  0  0  0  0  0  0  0
   -0.5419   -0.8924    2.1954 H   0  0  0  0  0  0  0  0  0  0  0  0
    1.9805    1.6275    1.0125 H   0  0  0  0  0  0  0  0  0  0  0  0
    2.7081    1.8430    2.6295 H   0  0  0  0  0  0  0  0  0  0  0  0
    3.7643    0.0054    0.4792 H   0  0  0  0  0  0  0  0  0  0  0  0
    4.3058    0.0031    2.1788 H   0  0  0  0  0  0  0  0  0  0  0  0
    2.7115   -1.8414    2.6234 H   0  0  0  0  0  0  0  0  0  0  0  0
    1.9837   -1.6221    1.0072 H   0  0  0  0  0  0  0  0  0  0  0  0
    0.6955    0.8899    4.2743 H   0  0  0  0  0  0  0  0  0  0  0  0
    0.6967   -0.8969    4.2716 H   0  0  0  0  0  0  0  0  0  0  0  0
    0.0325   -0.0028    6.5314 H   0  0  0  0  0  0  0  0  0  0  0  0
    4.9598   -0.0253    8.4894 H   0  0  0  0  0  0  0  0  0  0  0  0
    4.9482   -0.9122    6.9285 H   0  0  0  0  0  0  0  0  0  0  0  0
    4.9535    0.8783    6.9381 H   0  0  0  0  0  0  0  0  0  0  0  0
    0.2891   -0.9051   10.1861 H   0  0  0  0  0  0  0  0  0  0  0  0
    0.2937    0.8688   10.1931 H   0  0  0  0  0  0  0  0  0  0  0  0
   -0.8325   -0.0110    9.1274 H   0  0  0  0  0  0  0  0  0  0  0  0
  1  2  1  0  0  0  0
  2 17  1  0  0  0  0
  2 18  1  0  0  0  0
  2  3  1  0  0  0  0
  3  7  1  0  0  0  0
  4  3  1  0  0  0  0
  4 20  1  0  0  0  0
  5  6  1  0  0  0  0
  5  4  1  0  0  0  0
  5 22  1  0  0  0  0
  6  3  1  0  0  0  0
  6 23  1  0  0  0  0
  7 26  1  0  0  0  0
  7 25  1  0  0  0  0
  7  8  1  0  0  0  0
  8  9  1  0  0  0  0
  9 10  2  0  0  0  0
  9 13  1  0  0  0  0
 10 11  1  0  0  0  0
 11 12  2  0  0  0  0
 11 15  1  0  0  0  0
 13 12  1  0  0  0  0
 14 13  1  0  0  0  0
 14 28  1  0  0  0  0
 15 31  1  0  0  0  0
 15 32  1  0  0  0  0
 16  1  1  0  0  0  0
 19  4  1  0  0  0  0
 21  5  1  0  0  0  0
 24  6  1  0  0  0  0
 27 10  1  0  0  0  0
 29 14  1  0  0  0  0
 30 14  1  0  0  0  0
 33 15  1  0  0  0  0
M  END
