313517841.xyz
 OpenBabel08132112103D
COC(=O)Cc1c(S)cc(cc1C(F)F)C
 28 28  0  0  0  0  0  0  0  0999 V2000
    4.8981   -2.5428    0.6499 C   0  0  0  0  0  0  0  0  0  0  0  0
    4.3440   -1.3162    1.1232 O   0  0  0  0  0  0  0  0  0  0  0  0
    3.0104   -1.2946    1.2758 C   0  0  0  0  0  0  0  0  0  0  0  0
    2.2927   -2.2313    1.0300 O   0  0  0  0  0  0  0  0  0  0  0  0
    2.5383    0.0684    1.7465 C   0  0  0  0  0  0  0  0  0  0  0  0
    1.2240   -0.0000    2.4805 C   0  0  0  0  0  0  0  0  0  0  0  0
    0.0000    0.0000    1.7882 C   0  0  0  0  0  0  0  0  0  0  0  0
    0.0000    0.0000    0.0000 S   0  0  0  0  0  0  0  0  0  0  0  0
   -1.2173   -0.0532    2.4875 C   0  0  0  0  0  0  0  0  0  0  0  0
   -1.2588   -0.1043    3.8803 C   0  0  0  0  0  0  0  0  0  0  0  0
   -0.0367   -0.1413    4.5682 C   0  0  0  0  0  0  0  0  0  0  0  0
    1.1784   -0.0975    3.8875 C   0  0  0  0  0  0  0  0  0  0  0  0
    2.4394   -0.1712    4.7061 C   0  0  0  0  0  0  0  0  0  0  0  0
    3.1750    0.9777    4.6073 F   0  0  0  0  0  0  0  0  0  0  0  0
    3.2469   -1.1883    4.2820 F   0  0  0  0  0  0  0  0  0  0  0  0
   -2.5663   -0.1332    4.6288 C   0  0  0  0  0  0  0  0  0  0  0  0
    4.6828   -3.3618    1.3526 H   0  0  0  0  0  0  0  0  0  0  0  0
    4.4789   -2.8091   -0.3322 H   0  0  0  0  0  0  0  0  0  0  0  0
    5.9802   -2.3810    0.5733 H   0  0  0  0  0  0  0  0  0  0  0  0
    2.4174    0.6846    0.8391 H   0  0  0  0  0  0  0  0  0  0  0  0
    3.3257    0.5316    2.3489 H   0  0  0  0  0  0  0  0  0  0  0  0
   -1.0999    0.7753   -0.1380 H   0  0  0  0  0  0  0  0  0  0  0  0
   -2.1531   -0.0696    1.9239 H   0  0  0  0  0  0  0  0  0  0  0  0
   -0.0370   -0.2135    5.6596 H   0  0  0  0  0  0  0  0  0  0  0  0
    2.2229   -0.3367    5.7746 H   0  0  0  0  0  0  0  0  0  0  0  0
   -3.4190   -0.2657    3.9474 H   0  0  0  0  0  0  0  0  0  0  0  0
   -2.5870   -0.9530    5.3646 H   0  0  0  0  0  0  0  0  0  0  0  0
   -2.7241    0.8058    5.1857 H   0  0  0  0  0  0  0  0  0  0  0  0
  1  2  1  0  0  0  0
  1 17  1  0  0  0  0
  2  3  1  0  0  0  0
  3  5  1  0  0  0  0
  4  3  2  0  0  0  0
  5 21  1  0  0  0  0
  5  6  1  0  0  0  0
  6 12  1  0  0  0  0
  7  6  2  0  0  0  0
  7  9  1  0  0  0  0
  8  7  1  0  0  0  0
  9 10  2  0  0  0  0
 10 11  1  0  0  0  0
 10 16  1  0  0  0  0
 11 24  1  0  0  0  0
 12 11  2  0  0  0  0
 12 13  1  0  0  0  0
 13 25  1  0  0  0  0
 14 13  1  0  0  0  0
 15 13  1  0  0  0  0
 16 28  1  0  0  0  0
 16 27  1  0  0  0  0
 18  1  1  0  0  0  0
 19  1  1  0  0  0  0
 20  5  1  0  0  0  0
 22  8  1  0  0  0  0
 23  9  1  0  0  0  0
 26 16  1  0  0  0  0
M  END
