313515009.xyz
 OpenBabel08132112103D
COC(=O)c1cc(C)c(cc1S)OC(F)F
 26 26  0  0  0  0  0  0  0  0999 V2000
   -4.2391    0.0078    0.6665 C   0  0  0  0  0  0  0  0  0  0  0  0
   -2.8500    0.0106    1.0057 O   0  0  0  0  0  0  0  0  0  0  0  0
   -2.5617   -0.0136    2.3277 C   0  0  0  0  0  0  0  0  0  0  0  0
   -3.4406   -0.0347    3.1579 O   0  0  0  0  0  0  0  0  0  0  0  0
   -1.1048   -0.0090    2.6637 C   0  0  0  0  0  0  0  0  0  0  0  0
   -0.8530   -0.0195    4.0527 C   0  0  0  0  0  0  0  0  0  0  0  0
    0.4204   -0.0097    4.6106 C   0  0  0  0  0  0  0  0  0  0  0  0
    0.6602   -0.0158    6.0948 C   0  0  0  0  0  0  0  0  0  0  0  0
    1.4926    0.0045    3.7024 C   0  0  0  0  0  0  0  0  0  0  0  0
    1.2940   -0.0000    2.3291 C   0  0  0  0  0  0  0  0  0  0  0  0
    0.0000   -0.0000    1.7731 C   0  0  0  0  0  0  0  0  0  0  0  0
    0.0000    0.0000    0.0000 S   0  0  0  0  0  0  0  0  0  0  0  0
    2.7845   -0.0267    4.2031 O   0  0  0  0  0  0  0  0  0  0  0  0
    3.5135    1.1290    4.1218 C   0  0  0  0  0  0  0  0  0  0  0  0
    3.1252    1.9997    5.0897 F   0  0  0  0  0  0  0  0  0  0  0  0
    4.7918    0.8108    4.3444 F   0  0  0  0  0  0  0  0  0  0  0  0
   -4.7414    0.8908    1.0872 H   0  0  0  0  0  0  0  0  0  0  0  0
   -4.2830    0.0260   -0.4292 H   0  0  0  0  0  0  0  0  0  0  0  0
   -4.7309   -0.8944    1.0575 H   0  0  0  0  0  0  0  0  0  0  0  0
   -1.7263   -0.0302    4.7062 H   0  0  0  0  0  0  0  0  0  0  0  0
   -0.2912   -0.0209    6.6441 H   0  0  0  0  0  0  0  0  0  0  0  0
    1.2419    0.8664    6.4021 H   0  0  0  0  0  0  0  0  0  0  0  0
    1.2440   -0.8999    6.3975 H   0  0  0  0  0  0  0  0  0  0  0  0
    2.1642   -0.0224    1.6695 H   0  0  0  0  0  0  0  0  0  0  0  0
   -1.3377   -0.0087   -0.1620 H   0  0  0  0  0  0  0  0  0  0  0  0
    3.4088    1.6387    3.1471 H   0  0  0  0  0  0  0  0  0  0  0  0
  1  2  1  0  0  0  0
  1 19  1  0  0  0  0
  1 17  1  0  0  0  0
  2  3  1  0  0  0  0
  3  5  1  0  0  0  0
  3  4  2  0  0  0  0
  5  6  2  0  0  0  0
  6  7  1  0  0  0  0
  6 20  1  0  0  0  0
  7  8  1  0  0  0  0
  8 23  1  0  0  0  0
  8 22  1  0  0  0  0
  8 21  1  0  0  0  0
  9 13  1  0  0  0  0
  9  7  2  0  0  0  0
 10  9  1  0  0  0  0
 11 10  2  0  0  0  0
 11  5  1  0  0  0  0
 12 11  1  0  0  0  0
 14 13  1  0  0  0  0
 14 16  1  0  0  0  0
 14 15  1  0  0  0  0
 18  1  1  0  0  0  0
 24 10  1  0  0  0  0
 25 12  1  0  0  0  0
 26 14  1  0  0  0  0
M  END
