313506087.xyz
 OpenBabel08132112103D
CCOC(=O)Cc1cc(cc(c1S)OC(F)(F)F)C(F)(F)F
 32 32  0  0  0  0  0  0  0  0999 V2000
   -2.6274   -2.8615   -1.6967 C   0  0  0  0  0  0  0  0  0  0  0  0
   -3.7954   -2.4442   -0.8212 C   0  0  0  0  0  0  0  0  0  0  0  0
   -3.4918   -1.2370   -0.0948 O   0  0  0  0  0  0  0  0  0  0  0  0
   -2.7945   -1.3710    1.0424 C   0  0  0  0  0  0  0  0  0  0  0  0
   -2.4505   -2.4237    1.5161 O   0  0  0  0  0  0  0  0  0  0  0  0
   -2.5251   -0.0097    1.6759 C   0  0  0  0  0  0  0  0  0  0  0  0
   -1.2365    0.0080    2.4537 C   0  0  0  0  0  0  0  0  0  0  0  0
   -1.2444    0.0018    3.8481 C   0  0  0  0  0  0  0  0  0  0  0  0
   -0.0544   -0.0169    4.5802 C   0  0  0  0  0  0  0  0  0  0  0  0
    1.1712   -0.0230    3.9148 C   0  0  0  0  0  0  0  0  0  0  0  0
    1.1852   -0.0000    2.5245 C   0  0  0  0  0  0  0  0  0  0  0  0
    0.0000   -0.0000    1.7714 C   0  0  0  0  0  0  0  0  0  0  0  0
    0.0000    0.0000    0.0000 S   0  0  0  0  0  0  0  0  0  0  0  0
    2.4012   -0.0370    1.8407 O   0  0  0  0  0  0  0  0  0  0  0  0
    3.1831    1.0730    1.8508 C   0  0  0  0  0  0  0  0  0  0  0  0
    4.1666    0.8755    0.9847 F   0  0  0  0  0  0  0  0  0  0  0  0
    2.5033    2.1683    1.4972 F   0  0  0  0  0  0  0  0  0  0  0  0
    3.7167    1.3048    3.0581 F   0  0  0  0  0  0  0  0  0  0  0  0
   -0.0966   -0.0913    6.0837 C   0  0  0  0  0  0  0  0  0  0  0  0
   -1.1424    0.5910    6.5831 F   0  0  0  0  0  0  0  0  0  0  0  0
   -0.2161   -1.3607    6.5144 F   0  0  0  0  0  0  0  0  0  0  0  0
    1.0203    0.4094    6.6390 F   0  0  0  0  0  0  0  0  0  0  0  0
   -2.9022   -3.7456   -2.2934 H   0  0  0  0  0  0  0  0  0  0  0  0
   -1.7541   -3.1176   -1.0800 H   0  0  0  0  0  0  0  0  0  0  0  0
   -2.3463   -2.0502   -2.3854 H   0  0  0  0  0  0  0  0  0  0  0  0
   -4.6819   -2.1936   -1.4205 H   0  0  0  0  0  0  0  0  0  0  0  0
   -4.0551   -3.2361   -0.1035 H   0  0  0  0  0  0  0  0  0  0  0  0
   -3.3725    0.2046    2.3463 H   0  0  0  0  0  0  0  0  0  0  0  0
   -2.5433    0.7583    0.8880 H   0  0  0  0  0  0  0  0  0  0  0  0
   -2.1999    0.0074    4.3748 H   0  0  0  0  0  0  0  0  0  0  0  0
    2.1114   -0.0352    4.4637 H   0  0  0  0  0  0  0  0  0  0  0  0
    1.3241   -0.2260   -0.1341 H   0  0  0  0  0  0  0  0  0  0  0  0
  1 24  1  0  0  0  0
  1  2  1  0  0  0  0
  2 27  1  0  0  0  0
  2  3  1  0  0  0  0
  3  4  1  0  0  0  0
  4  5  2  0  0  0  0
  4  6  1  0  0  0  0
  6 28  1  0  0  0  0
  6  7  1  0  0  0  0
  7  8  1  0  0  0  0
  8 30  1  0  0  0  0
  8  9  2  0  0  0  0
  9 19  1  0  0  0  0
 10 31  1  0  0  0  0
 10  9  1  0  0  0  0
 11 10  2  0  0  0  0
 12  7  2  0  0  0  0
 12 11  1  0  0  0  0
 13 12  1  0  0  0  0
 14 15  1  0  0  0  0
 14 11  1  0  0  0  0
 15 18  1  0  0  0  0
 16 15  1  0  0  0  0
 17 15  1  0  0  0  0
 19 21  1  0  0  0  0
 19 20  1  0  0  0  0
 19 22  1  0  0  0  0
 23  1  1  0  0  0  0
 25  1  1  0  0  0  0
 26  2  1  0  0  0  0
 29  6  1  0  0  0  0
 32 13  1  0  0  0  0
M  END
