313509646.xyz
 OpenBabel08132112103D
COC(=O)c1cc(OC(F)F)c(cc1OC)S
 27 27  0  0  0  0  0  0  0  0999 V2000
    1.2108   -0.3544    8.0109 C   0  0  0  0  0  0  0  0  0  0  0  0
    1.1051   -0.3349    6.5899 O   0  0  0  0  0  0  0  0  0  0  0  0
   -0.1025    0.0069    6.0906 C   0  0  0  0  0  0  0  0  0  0  0  0
   -1.0439    0.2715    6.8024 O   0  0  0  0  0  0  0  0  0  0  0  0
   -0.0933    0.0238    4.6022 C   0  0  0  0  0  0  0  0  0  0  0  0
    1.1337   -0.0123    3.9158 C   0  0  0  0  0  0  0  0  0  0  0  0
    1.1859   -0.0000    2.5287 C   0  0  0  0  0  0  0  0  0  0  0  0
    2.3836   -0.0318    1.8368 O   0  0  0  0  0  0  0  0  0  0  0  0
    3.4159    0.7508    2.2790 C   0  0  0  0  0  0  0  0  0  0  0  0
    4.1317    0.1041    3.2313 F   0  0  0  0  0  0  0  0  0  0  0  0
    4.2273    0.9597    1.2354 F   0  0  0  0  0  0  0  0  0  0  0  0
    0.0000   -0.0000    1.7657 C   0  0  0  0  0  0  0  0  0  0  0  0
   -1.2214    0.0043    2.4476 C   0  0  0  0  0  0  0  0  0  0  0  0
   -1.2884    0.0249    3.8452 C   0  0  0  0  0  0  0  0  0  0  0  0
   -2.5199   -0.0278    4.4131 O   0  0  0  0  0  0  0  0  0  0  0  0
   -3.0944    1.2093    4.8165 C   0  0  0  0  0  0  0  0  0  0  0  0
    0.0000    0.0000    0.0000 S   0  0  0  0  0  0  0  0  0  0  0  0
    0.9815    0.6351    8.4347 H   0  0  0  0  0  0  0  0  0  0  0  0
    2.2463   -0.6370    8.2362 H   0  0  0  0  0  0  0  0  0  0  0  0
    0.5116   -1.0855    8.4437 H   0  0  0  0  0  0  0  0  0  0  0  0
    2.0559   -0.0650    4.4913 H   0  0  0  0  0  0  0  0  0  0  0  0
    3.0668    1.7125    2.6966 H   0  0  0  0  0  0  0  0  0  0  0  0
   -2.1627   -0.0152    1.8958 H   0  0  0  0  0  0  0  0  0  0  0  0
   -2.4933    1.6858    5.6046 H   0  0  0  0  0  0  0  0  0  0  0  0
   -3.2013    1.8912    3.9535 H   0  0  0  0  0  0  0  0  0  0  0  0
   -4.0895    0.9759    5.2178 H   0  0  0  0  0  0  0  0  0  0  0  0
    1.3427   -0.0589   -0.1361 H   0  0  0  0  0  0  0  0  0  0  0  0
  1 19  1  0  0  0  0
  1 18  1  0  0  0  0
  1 20  1  0  0  0  0
  2  1  1  0  0  0  0
  3  2  1  0  0  0  0
  3  4  2  0  0  0  0
  5  3  1  0  0  0  0
  6 21  1  0  0  0  0
  6  5  1  0  0  0  0
  7  6  2  0  0  0  0
  8  9  1  0  0  0  0
  8  7  1  0  0  0  0
  9 22  1  0  0  0  0
  9 10  1  0  0  0  0
 11  9  1  0  0  0  0
 12 13  2  0  0  0  0
 12  7  1  0  0  0  0
 13 14  1  0  0  0  0
 14 15  1  0  0  0  0
 14  5  2  0  0  0  0
 15 16  1  0  0  0  0
 16 26  1  0  0  0  0
 16 24  1  0  0  0  0
 17 12  1  0  0  0  0
 23 13  1  0  0  0  0
 25 16  1  0  0  0  0
 27 17  1  0  0  0  0
M  END
