313641211.xyz
 OpenBabel08132112103D
CCC(Cn1cc(c(n1)C)Cl)CS
 28 28  0  0  1  0  0  0  0  0999 V2000
    1.7291    2.5679    2.3122 C   0  0  0  0  0  0  0  0  0  0  0  0
    2.2884    1.1696    2.0460 C   0  0  0  0  0  0  0  0  0  0  0  0
    1.3892   -0.0000    2.4852 C   0  0  1  0  0  0  0  0  0  0  0  0
    1.2647   -0.0531    4.0199 C   0  0  0  0  0  0  0  0  0  0  0  0
    0.5940   -1.2426    4.5104 N   0  0  0  0  0  0  0  0  0  0  0  0
    1.1254   -2.4865    4.6540 C   0  0  0  0  0  0  0  0  0  0  0  0
    0.0736   -3.3018    5.0376 C   0  0  0  0  0  0  0  0  0  0  0  0
   -1.0703   -2.4616    5.0981 C   0  0  0  0  0  0  0  0  0  0  0  0
   -0.7268   -1.2166    4.7675 N   0  0  0  0  0  0  0  0  0  0  0  0
   -2.4657   -2.8376    5.4710 C   0  0  0  0  0  0  0  0  0  0  0  0
    0.1281   -4.9916    5.3963 Cl  0  0  0  0  0  0  0  0  0  0  0  0
   -0.0000    0.0000    1.8346 C   0  0  0  0  0  0  0  0  0  0  0  0
    0.0000    0.0000    0.0000 S   0  0  0  0  0  0  0  0  0  0  0  0
    0.8016    2.7474    1.7467 H   0  0  0  0  0  0  0  0  0  0  0  0
    1.5102    2.7388    3.3786 H   0  0  0  0  0  0  0  0  0  0  0  0
    2.4515    3.3380    2.0005 H   0  0  0  0  0  0  0  0  0  0  0  0
    3.2662    1.0603    2.5471 H   0  0  0  0  0  0  0  0  0  0  0  0
    2.4781    1.0611    0.9671 H   0  0  0  0  0  0  0  0  0  0  0  0
    1.8979   -0.9324    2.1785 H   0  0  0  0  0  0  0  0  0  0  0  0
    0.6882    0.8003    4.4016 H   0  0  0  0  0  0  0  0  0  0  0  0
    2.2681   -0.0136    4.4719 H   0  0  0  0  0  0  0  0  0  0  0  0
    2.1778   -2.7017    4.4882 H   0  0  0  0  0  0  0  0  0  0  0  0
   -2.8581   -3.6203    4.8019 H   0  0  0  0  0  0  0  0  0  0  0  0
   -3.1188   -1.9569    5.4080 H   0  0  0  0  0  0  0  0  0  0  0  0
   -2.5087   -3.2385    6.4966 H   0  0  0  0  0  0  0  0  0  0  0  0
   -0.5587    0.9068    2.1119 H   0  0  0  0  0  0  0  0  0  0  0  0
   -0.5969   -0.8472    2.1957 H   0  0  0  0  0  0  0  0  0  0  0  0
    0.5764   -1.2154   -0.1516 H   0  0  0  0  0  0  0  0  0  0  0  0
  1 15  1  0  0  0  0
  2  1  1  0  0  0  0
  2  3  1  0  0  0  0
  2 17  1  0  0  0  0
  3 19  1  6  0  0  0
  3  4  1  0  0  0  0
  4 20  1  0  0  0  0
  4 21  1  0  0  0  0
  4  5  1  0  0  0  0
  5  6  1  0  0  0  0
  5  9  1  0  0  0  0
  6  7  2  0  0  0  0
  7  8  1  0  0  0  0
  7 11  1  0  0  0  0
  8 10  1  0  0  0  0
  9  8  2  0  0  0  0
 10 25  1  0  0  0  0
 12 26  1  0  0  0  0
 12 27  1  0  0  0  0
 12  3  1  0  0  0  0
 13 12  1  0  0  0  0
 14  1  1  0  0  0  0
 16  1  1  0  0  0  0
 18  2  1  0  0  0  0
 22  6  1  0  0  0  0
 23 10  1  0  0  0  0
 24 10  1  0  0  0  0
 28 13  1  0  0  0  0
M  END
