313670386.xyz
 OpenBabel08132112103D
Brc1ccc(c(c1)F)c1nn(c(n1)S)C
 22 23  0  0  0  0  0  0  0  0999 V2000
    3.5142    0.0001    9.2067 Br  0  0  0  0  0  0  0  0  0  0  0  0
    2.5928   -0.0000    7.5420 C   0  0  0  0  0  0  0  0  0  0  0  0
    1.1943   -0.0013    7.5219 C   0  0  0  0  0  0  0  0  0  0  0  0
    0.5387   -0.0013    6.2950 C   0  0  0  0  0  0  0  0  0  0  0  0
    1.2366    0.0000    5.0721 C   0  0  0  0  0  0  0  0  0  0  0  0
    2.6399    0.0013    5.1404 C   0  0  0  0  0  0  0  0  0  0  0  0
    3.3236    0.0013    6.3559 C   0  0  0  0  0  0  0  0  0  0  0  0
    3.3762    0.0026    4.0286 F   0  0  0  0  0  0  0  0  0  0  0  0
    0.4865    0.0000    3.8090 C   0  0  0  0  0  0  0  0  0  0  0  0
   -0.8449   -0.0001    3.7995 N   0  0  0  0  0  0  0  0  0  0  0  0
   -1.1493    0.0001    2.4835 N   0  0  0  0  0  0  0  0  0  0  0  0
   -0.0000   -0.0000    1.7593 C   0  0  0  0  0  0  0  0  0  0  0  0
    1.0467    0.0000    2.5602 N   0  0  0  0  0  0  0  0  0  0  0  0
    0.0000    0.0000    0.0000 S   0  0  0  0  0  0  0  0  0  0  0  0
   -2.5175    0.0002    2.0140 C   0  0  0  0  0  0  0  0  0  0  0  0
    0.6294   -0.0024    8.4543 H   0  0  0  0  0  0  0  0  0  0  0  0
   -0.5513   -0.0023    6.2582 H   0  0  0  0  0  0  0  0  0  0  0  0
    4.4134    0.0023    6.3487 H   0  0  0  0  0  0  0  0  0  0  0  0
    1.3494    0.0001   -0.0647 H   0  0  0  0  0  0  0  0  0  0  0  0
   -2.7201   -0.8967    1.4081 H   0  0  0  0  0  0  0  0  0  0  0  0
   -3.1682    0.0008    2.8956 H   0  0  0  0  0  0  0  0  0  0  0  0
   -2.7196    0.8968    1.4074 H   0  0  0  0  0  0  0  0  0  0  0  0
  2  1  1  0  0  0  0
  3  2  1  0  0  0  0
  3 16  1  0  0  0  0
  4  3  2  0  0  0  0
  5  6  2  0  0  0  0
  5  4  1  0  0  0  0
  6  7  1  0  0  0  0
  7  2  2  0  0  0  0
  8  6  1  0  0  0  0
  9  5  1  0  0  0  0
 10  9  2  0  0  0  0
 11 10  1  0  0  0  0
 12 11  1  0  0  0  0
 12 13  2  0  0  0  0
 13  9  2  0  0  0  0
 14 12  1  0  0  0  0
 15 11  1  0  0  0  0
 15 21  1  0  0  0  0
 17  4  1  0  0  0  0
 18  7  1  0  0  0  0
 19 14  1  0  0  0  0
 20 15  1  0  0  0  0
 22 15  1  0  0  0  0
M  END
