313635730.xyz
 OpenBabel08132112103D
SCCN1CCCN(CC1C)Cc1ccccc1
 42 43  0  0  1  0  0  0  0  0999 V2000
    0.0000    0.0000    0.0000 S   0  0  0  0  0  0  0  0  0  0  0  0
    0.0000    0.0000    1.8325 C   0  0  0  0  0  0  0  0  0  0  0  0
    1.4152    0.0000    2.4349 C   0  0  0  0  0  0  0  0  0  0  0  0
    1.4913    0.0079    3.8872 N   0  0  0  0  0  0  0  0  0  0  0  0
    1.0175    1.2647    4.4477 C   0  0  0  0  0  0  0  0  0  0  0  0
    1.3710    1.5242    5.9127 C   0  0  0  0  0  0  0  0  0  0  0  0
    0.6232    0.6167    6.8976 C   0  0  0  0  0  0  0  0  0  0  0  0
    1.1954   -0.7117    7.1033 N   0  0  0  0  0  0  0  0  0  0  0  0
    1.8234   -1.3308    5.9457 C   0  0  0  0  0  0  0  0  0  0  0  0
    1.0608   -1.2025    4.6090 C   0  0  2  0  0  0  0  0  0  0  0  0
    1.3070   -2.4829    3.8044 C   0  0  0  0  0  0  0  0  0  0  0  0
    2.0417   -0.8097    8.2795 C   0  0  0  0  0  0  0  0  0  0  0  0
    1.2892   -0.6274    9.5812 C   0  0  0  0  0  0  0  0  0  0  0  0
    1.8591    0.0743   10.6506 C   0  0  0  0  0  0  0  0  0  0  0  0
    1.1793    0.2022   11.8659 C   0  0  0  0  0  0  0  0  0  0  0  0
   -0.0867   -0.3666   12.0224 C   0  0  0  0  0  0  0  0  0  0  0  0
   -0.6675   -1.0623   10.9563 C   0  0  0  0  0  0  0  0  0  0  0  0
    0.0152   -1.1910    9.7462 C   0  0  0  0  0  0  0  0  0  0  0  0
    0.6218   -1.1933   -0.1512 H   0  0  0  0  0  0  0  0  0  0  0  0
   -0.5983   -0.8467    2.2017 H   0  0  0  0  0  0  0  0  0  0  0  0
   -0.5438    0.9170    2.1046 H   0  0  0  0  0  0  0  0  0  0  0  0
    1.9714   -0.8615    2.0384 H   0  0  0  0  0  0  0  0  0  0  0  0
    1.9451    0.8908    2.0603 H   0  0  0  0  0  0  0  0  0  0  0  0
   -0.0906    1.3651    4.3626 H   0  0  0  0  0  0  0  0  0  0  0  0
    1.4457    2.0730    3.8325 H   0  0  0  0  0  0  0  0  0  0  0  0
    2.4609    1.4566    6.0649 H   0  0  0  0  0  0  0  0  0  0  0  0
    1.0882    2.5686    6.1263 H   0  0  0  0  0  0  0  0  0  0  0  0
    0.5613    1.1025    7.8815 H   0  0  0  0  0  0  0  0  0  0  0  0
   -0.4225    0.5222    6.5496 H   0  0  0  0  0  0  0  0  0  0  0  0
    2.8470   -0.9409    5.7541 H   0  0  0  0  0  0  0  0  0  0  0  0
    1.9396   -2.4002    6.1866 H   0  0  0  0  0  0  0  0  0  0  0  0
   -0.0265   -1.1622    4.8401 H   0  0  0  0  0  0  0  0  0  0  0  0
    0.9784   -3.3504    4.3944 H   0  0  0  0  0  0  0  0  0  0  0  0
    0.7556   -2.5078    2.8549 H   0  0  0  0  0  0  0  0  0  0  0  0
    2.3797   -2.6077    3.5844 H   0  0  0  0  0  0  0  0  0  0  0  0
    2.4913   -1.8188    8.2761 H   0  0  0  0  0  0  0  0  0  0  0  0
    2.9022   -0.1023    8.2505 H   0  0  0  0  0  0  0  0  0  0  0  0
    2.8466    0.5290   10.5288 H   0  0  0  0  0  0  0  0  0  0  0  0
    1.6380    0.7543   12.6901 H   0  0  0  0  0  0  0  0  0  0  0  0
   -0.6223   -0.2640   12.9693 H   0  0  0  0  0  0  0  0  0  0  0  0
   -1.6602   -1.5056   11.0701 H   0  0  0  0  0  0  0  0  0  0  0  0
   -0.4332   -1.7182    8.9014 H   0  0  0  0  0  0  0  0  0  0  0  0
  1  2  1  0  0  0  0
  2 21  1  0  0  0  0
  2 20  1  0  0  0  0
  2  3  1  0  0  0  0
  3  4  1  0  0  0  0
  4  5  1  0  0  0  0
  4 10  1  0  0  0  0
  5  6  1  0  0  0  0
  6 26  1  0  0  0  0
  6 27  1  0  0  0  0
  6  7  1  0  0  0  0
  7  8  1  0  0  0  0
  7 28  1  0  0  0  0
  8 12  1  0  0  0  0
  9 31  1  0  0  0  0
  9  8  1  0  0  0  0
 10 32  1  1  0  0  0
 10  9  1  0  0  0  0
 11 33  1  0  0  0  0
 11 10  1  0  0  0  0
 12 13  1  0  0  0  0
 13 18  2  0  0  0  0
 13 14  1  0  0  0  0
 14 15  2  0  0  0  0
 15 16  1  0  0  0  0
 15 39  1  0  0  0  0
 16 40  1  0  0  0  0
 17 41  1  0  0  0  0
 17 16  2  0  0  0  0
 18 17  1  0  0  0  0
 19  1  1  0  0  0  0
 22  3  1  0  0  0  0
 23  3  1  0  0  0  0
 24  5  1  0  0  0  0
 25  5  1  0  0  0  0
 29  7  1  0  0  0  0
 30  9  1  0  0  0  0
 34 11  1  0  0  0  0
 35 11  1  0  0  0  0
 36 12  1  0  0  0  0
 37 12  1  0  0  0  0
 38 14  1  0  0  0  0
 42 18  1  0  0  0  0
M  END
