313646841.xyz
 OpenBabel08132112103D
SCCCSc1ncccc1Cl
 22 22  0  0  1  0  0  0  0  0999 V2000
    0.0000    0.0000    0.0000 S   0  0  0  0  0  0  0  0  0  0  0  0
    0.0000   -0.0000    1.8386 C   0  0  0  0  0  0  0  0  0  0  0  0
    1.4426   -0.0000    2.3417 C   0  0  0  0  0  0  0  0  0  0  0  0
    1.5580   -0.0715    3.8633 C   0  0  0  0  0  0  0  0  0  0  0  0
    0.8809    1.4551    4.6190 S   0  0  0  0  0  0  0  0  0  0  0  0
    1.0452    1.0533    6.3341 C   0  0  0  0  0  0  0  0  0  0  0  0
    1.5592   -0.1204    6.6917 N   0  0  0  0  0  0  0  0  0  0  0  0
    1.6820   -0.4199    7.9875 C   0  0  0  0  0  0  0  0  0  0  0  0
    1.2952    0.4458    9.0089 C   0  0  0  0  0  0  0  0  0  0  0  0
    0.7525    1.6849    8.6514 C   0  0  0  0  0  0  0  0  0  0  0  0
    0.6243    1.9954    7.3032 C   0  0  2  0  0  0  0  0  0  0  0  0
   -0.0460    3.5242    6.8070 Cl  0  0  0  0  0  0  0  0  0  0  0  0
   -1.3422    0.0562   -0.1553 H   0  0  0  0  0  0  0  0  0  0  0  0
   -0.5365    0.8872    2.2053 H   0  0  0  0  0  0  0  0  0  0  0  0
   -0.5273   -0.8934    2.2084 H   0  0  0  0  0  0  0  0  0  0  0  0
    1.9724   -0.8732    1.9244 H   0  0  0  0  0  0  0  0  0  0  0  0
    1.9676    0.8932    1.9627 H   0  0  0  0  0  0  0  0  0  0  0  0
    2.6056   -0.1729    4.1784 H   0  0  0  0  0  0  0  0  0  0  0  0
    1.0111   -0.9315    4.2751 H   0  0  0  0  0  0  0  0  0  0  0  0
    2.1115   -1.4004    8.2198 H   0  0  0  0  0  0  0  0  0  0  0  0
    1.4125    0.1650   10.0569 H   0  0  0  0  0  0  0  0  0  0  0  0
    0.4301    2.4072    9.4034 H   0  0  0  0  0  0  0  0  0  0  0  0
  1  2  1  0  0  0  0
  2 14  1  0  0  0  0
  2 15  1  0  0  0  0
  2  3  1  0  0  0  0
  3  4  1  0  0  0  0
  4 18  1  0  0  0  0
  4 19  1  0  0  0  0
  4  5  1  0  0  0  0
  5  6  1  0  0  0  0
  6  7  2  0  0  0  0
  6 11  1  0  0  0  0
  7  8  2  0  0  0  0
  8 20  1  0  0  0  0
  8  9  1  0  0  0  0
  9 21  1  0  0  0  0
 10  9  2  0  0  0  0
 10 22  1  0  0  0  0
 11 12  1  6  0  0  0
 11 10  1  0  0  0  0
 13  1  1  0  0  0  0
 16  3  1  0  0  0  0
 17  3  1  0  0  0  0
M  RAD  1  11   2
M  END
