313643508.xyz
 OpenBabel08132112103D
SCC1(CCC1)CSc1nnc(s1)C
 28 29  0  0  0  0  0  0  0  0999 V2000
    0.0000    0.0000    0.0000 S   0  0  0  0  0  0  0  0  0  0  0  0
   -0.0000    0.0000    1.8335 C   0  0  0  0  0  0  0  0  0  0  0  0
    1.3689    0.0000    2.5257 C   0  0  0  0  0  0  0  0  0  0  0  0
    2.4295    1.0581    2.0943 C   0  0  0  0  0  0  0  0  0  0  0  0
    3.5044   -0.0557    2.0661 C   0  0  0  0  0  0  0  0  0  0  0  0
    2.3748   -1.1132    2.1016 C   0  0  0  0  0  0  0  0  0  0  0  0
    1.1818   -0.0394    4.0438 C   0  0  0  0  0  0  0  0  0  0  0  0
    0.3531    1.4895    4.6504 S   0  0  0  0  0  0  0  0  0  0  0  0
    0.5014    1.2161    6.3715 C   0  0  0  0  0  0  0  0  0  0  0  0
    1.0667    0.1798    6.9244 N   0  0  0  0  0  0  0  0  0  0  0  0
    1.0465    0.2218    8.2840 N   0  0  0  0  0  0  0  0  0  0  0  0
    0.4707    1.2758    8.7748 C   0  0  0  0  0  0  0  0  0  0  0  0
   -0.1316    2.3744    7.5309 S   0  0  0  0  0  0  0  0  0  0  0  0
    0.3213    1.5529   10.2337 C   0  0  0  0  0  0  0  0  0  0  0  0
    0.2644    1.3154   -0.1665 H   0  0  0  0  0  0  0  0  0  0  0  0
   -0.5390   -0.9213    2.1077 H   0  0  0  0  0  0  0  0  0  0  0  0
   -0.6212    0.8389    2.1812 H   0  0  0  0  0  0  0  0  0  0  0  0
    2.2238    1.4495    1.0885 H   0  0  0  0  0  0  0  0  0  0  0  0
    2.5809    1.9035    2.7819 H   0  0  0  0  0  0  0  0  0  0  0  0
    4.1293   -0.0667    2.9716 H   0  0  0  0  0  0  0  0  0  0  0  0
    4.1675   -0.0763    1.1892 H   0  0  0  0  0  0  0  0  0  0  0  0
    2.4854   -1.9628    2.7932 H   0  0  0  0  0  0  0  0  0  0  0  0
    2.1355   -1.4935    1.0985 H   0  0  0  0  0  0  0  0  0  0  0  0
    0.5745   -0.9034    4.3521 H   0  0  0  0  0  0  0  0  0  0  0  0
    2.1436   -0.1118    4.5683 H   0  0  0  0  0  0  0  0  0  0  0  0
    0.7771    0.7222   10.7888 H   0  0  0  0  0  0  0  0  0  0  0  0
    0.8224    2.4916   10.5186 H   0  0  0  0  0  0  0  0  0  0  0  0
   -0.7388    1.6366   10.5211 H   0  0  0  0  0  0  0  0  0  0  0  0
  1  2  1  0  0  0  0
  2 16  1  0  0  0  0
  2 17  1  0  0  0  0
  2  3  1  0  0  0  0
  3  7  1  0  0  0  0
  4  3  1  0  0  0  0
  4 19  1  0  0  0  0
  5  4  1  0  0  0  0
  5  6  1  0  0  0  0
  5 20  1  0  0  0  0
  6  3  1  0  0  0  0
  6 22  1  0  0  0  0
  7 24  1  0  0  0  0
  7 25  1  0  0  0  0
  7  8  1  0  0  0  0
  8  9  1  0  0  0  0
  9 10  2  0  0  0  0
  9 13  1  0  0  0  0
 10 11  1  0  0  0  0
 11 12  2  0  0  0  0
 12 14  1  0  0  0  0
 13 12  1  0  0  0  0
 14 27  1  0  0  0  0
 14 28  1  0  0  0  0
 14 26  1  0  0  0  0
 15  1  1  0  0  0  0
 18  4  1  0  0  0  0
 21  5  1  0  0  0  0
 23  6  1  0  0  0  0
M  END
