313607529.xyz
 OpenBabel08132112103D
Sc1onc(n1)COCc1ccccc1
 25 26  0  0  0  0  0  0  0  0999 V2000
    0.0000    0.0000    0.0000 S   0  0  0  0  0  0  0  0  0  0  0  0
    0.0000    0.0000    1.7476 C   0  0  0  0  0  0  0  0  0  0  0  0
    1.1887    0.0000    2.3577 O   0  0  0  0  0  0  0  0  0  0  0  0
    0.9285   -0.0045    3.7357 N   0  0  0  0  0  0  0  0  0  0  0  0
   -0.3777    0.0002    3.8023 C   0  0  0  0  0  0  0  0  0  0  0  0
   -1.0071    0.0047    2.5726 N   0  0  0  0  0  0  0  0  0  0  0  0
   -1.1045   -0.0103    5.1171 C   0  0  0  0  0  0  0  0  0  0  0  0
   -1.7637   -1.2264    5.3813 O   0  0  0  0  0  0  0  0  0  0  0  0
   -2.9420   -1.4799    4.6201 C   0  0  0  0  0  0  0  0  0  0  0  0
   -4.0071   -0.4234    4.8022 C   0  0  0  0  0  0  0  0  0  0  0  0
   -4.3858    0.4093    3.7415 C   0  0  0  0  0  0  0  0  0  0  0  0
   -5.3560    1.3994    3.9265 C   0  0  0  0  0  0  0  0  0  0  0  0
   -5.9489    1.5719    5.1792 C   0  0  0  0  0  0  0  0  0  0  0  0
   -5.5664    0.7535    6.2484 C   0  0  0  0  0  0  0  0  0  0  0  0
   -4.6012   -0.2360    6.0598 C   0  0  0  0  0  0  0  0  0  0  0  0
   -1.3501    0.0093   -0.0639 H   0  0  0  0  0  0  0  0  0  0  0  0
   -0.3619    0.1272    5.9143 H   0  0  0  0  0  0  0  0  0  0  0  0
   -1.8060    0.8439    5.1375 H   0  0  0  0  0  0  0  0  0  0  0  0
   -2.7027   -1.5892    3.5497 H   0  0  0  0  0  0  0  0  0  0  0  0
   -3.3015   -2.4516    4.9909 H   0  0  0  0  0  0  0  0  0  0  0  0
   -3.8962    0.2887    2.7723 H   0  0  0  0  0  0  0  0  0  0  0  0
   -5.6442    2.0426    3.0914 H   0  0  0  0  0  0  0  0  0  0  0  0
   -6.7065    2.3456    5.3259 H   0  0  0  0  0  0  0  0  0  0  0  0
   -6.0260    0.8875    7.2308 H   0  0  0  0  0  0  0  0  0  0  0  0
   -4.2960   -0.8724    6.8948 H   0  0  0  0  0  0  0  0  0  0  0  0
  1  2  1  0  0  0  0
  2  3  1  0  0  0  0
  2  6  2  0  0  0  0
  3  4  1  0  0  0  0
  4  5  2  0  0  0  0
  5  7  1  0  0  0  0
  6  5  2  0  0  0  0
  7 18  1  0  0  0  0
  7  8  1  0  0  0  0
  7 17  1  0  0  0  0
  9 10  1  0  0  0  0
  9 20  1  0  0  0  0
  9  8  1  0  0  0  0
 10 15  2  0  0  0  0
 11 12  2  0  0  0  0
 11 10  1  0  0  0  0
 12 13  1  0  0  0  0
 13 23  1  0  0  0  0
 13 14  2  0  0  0  0
 14 24  1  0  0  0  0
 15 14  1  0  0  0  0
 15 25  1  0  0  0  0
 16  1  1  0  0  0  0
 19  9  1  0  0  0  0
 21 11  1  0  0  0  0
 22 12  1  0  0  0  0
M  END
