313641467.xyz
 OpenBabel08132112103D
SCCCN1CCC(CCC1=O)C(C)C
 38 38  0  0  1  0  0  0  0  0999 V2000
    0.0000    0.0000    0.0000 S   0  0  0  0  0  0  0  0  0  0  0  0
   -0.0000    0.0000    1.8337 C   0  0  0  0  0  0  0  0  0  0  0  0
    1.3889    0.0000    2.4630 C   0  0  0  0  0  0  0  0  0  0  0  0
    1.3673   -0.0565    3.9949 C   0  0  0  0  0  0  0  0  0  0  0  0
    0.7092   -1.2474    4.5269 N   0  0  0  0  0  0  0  0  0  0  0  0
   -0.6717   -1.1684    4.9931 C   0  0  0  0  0  0  0  0  0  0  0  0
   -0.8277   -1.2473    6.5178 C   0  0  0  0  0  0  0  0  0  0  0  0
   -0.7063   -2.6278    7.1981 C   0  0  2  0  0  0  0  0  0  0  0  0
    0.5230   -3.4417    6.7423 C   0  0  0  0  0  0  0  0  0  0  0  0
    0.7715   -3.6079    5.2295 C   0  0  0  0  0  0  0  0  0  0  0  0
    1.4468   -2.4021    4.5930 C   0  0  0  0  0  0  0  0  0  0  0  0
    2.6009   -2.4501    4.1916 O   0  0  0  0  0  0  0  0  0  0  0  0
   -2.0465   -3.4204    7.2434 C   0  0  0  0  0  0  0  0  0  0  0  0
   -2.0090   -4.5185    8.3145 C   0  0  0  0  0  0  0  0  0  0  0  0
   -2.5505   -4.0108    5.9202 C   0  0  0  0  0  0  0  0  0  0  0  0
    0.6261    1.1903   -0.1534 H   0  0  0  0  0  0  0  0  0  0  0  0
   -0.6076    0.8449    2.1973 H   0  0  0  0  0  0  0  0  0  0  0  0
   -0.5412   -0.9216    2.0981 H   0  0  0  0  0  0  0  0  0  0  0  0
    1.9338    0.9103    2.1570 H   0  0  0  0  0  0  0  0  0  0  0  0
    1.9674   -0.8571    2.0875 H   0  0  0  0  0  0  0  0  0  0  0  0
    0.8568    0.8277    4.4093 H   0  0  0  0  0  0  0  0  0  0  0  0
    2.4051   -0.0504    4.3575 H   0  0  0  0  0  0  0  0  0  0  0  0
   -1.2850   -1.9309    4.4901 H   0  0  0  0  0  0  0  0  0  0  0  0
   -1.0661   -0.2016    4.6526 H   0  0  0  0  0  0  0  0  0  0  0  0
   -0.0708   -0.5694    6.9480 H   0  0  0  0  0  0  0  0  0  0  0  0
   -1.8088   -0.8192    6.7861 H   0  0  0  0  0  0  0  0  0  0  0  0
   -0.5163   -2.3962    8.2605 H   0  0  0  0  0  0  0  0  0  0  0  0
    0.4605   -4.4444    7.1922 H   0  0  0  0  0  0  0  0  0  0  0  0
    1.4293   -2.9866    7.1767 H   0  0  0  0  0  0  0  0  0  0  0  0
    1.4679   -4.4403    5.0653 H   0  0  0  0  0  0  0  0  0  0  0  0
   -0.1585   -3.8502    4.6957 H   0  0  0  0  0  0  0  0  0  0  0  0
   -2.8013   -2.6825    7.5729 H   0  0  0  0  0  0  0  0  0  0  0  0
   -1.6880   -4.1221    9.2910 H   0  0  0  0  0  0  0  0  0  0  0  0
   -3.0051   -4.9702    8.4450 H   0  0  0  0  0  0  0  0  0  0  0  0
   -1.3186   -5.3326    8.0398 H   0  0  0  0  0  0  0  0  0  0  0  0
   -3.5424   -4.4676    6.0661 H   0  0  0  0  0  0  0  0  0  0  0  0
   -1.8840   -4.8047    5.5483 H   0  0  0  0  0  0  0  0  0  0  0  0
   -2.6570   -3.2553    5.1287 H   0  0  0  0  0  0  0  0  0  0  0  0
  1  2  1  0  0  0  0
  2 18  1  0  0  0  0
  2 17  1  0  0  0  0
  2  3  1  0  0  0  0
  3  4  1  0  0  0  0
  4 22  1  0  0  0  0
  4 21  1  0  0  0  0
  4  5  1  0  0  0  0
  5 11  1  0  0  0  0
  5  6  1  0  0  0  0
  6  7  1  0  0  0  0
  7 26  1  0  0  0  0
  7 25  1  0  0  0  0
  7  8  1  0  0  0  0
  8 13  1  0  0  0  0
  8 27  1  1  0  0  0
  9 29  1  0  0  0  0
  9 28  1  0  0  0  0
  9  8  1  0  0  0  0
 10  9  1  0  0  0  0
 11 10  1  0  0  0  0
 12 11  2  0  0  0  0
 13 32  1  0  0  0  0
 13 14  1  0  0  0  0
 14 34  1  0  0  0  0
 14 33  1  0  0  0  0
 15 36  1  0  0  0  0
 15 13  1  0  0  0  0
 16  1  1  0  0  0  0
 19  3  1  0  0  0  0
 20  3  1  0  0  0  0
 23  6  1  0  0  0  0
 24  6  1  0  0  0  0
 30 10  1  0  0  0  0
 31 10  1  0  0  0  0
 35 14  1  0  0  0  0
 37 15  1  0  0  0  0
 38 15  1  0  0  0  0
M  END
