313696679.xyz
 OpenBabel08132112103D
O=C1NC(=NC1c1ccc(c(c1)Cl)F)S
 21 22  0  0  1  0  0  0  0  0999 V2000
    1.8421    0.0095    4.6586 O   0  0  0  0  0  0  0  0  0  0  0  0
    1.0069    0.0084    3.7903 C   0  0  0  0  0  0  0  0  0  0  0  0
    1.2302    0.0000    2.4184 N   0  0  0  0  0  0  0  0  0  0  0  0
    0.0000    0.0000    1.7605 C   0  0  0  0  0  0  0  0  0  0  0  0
   -1.0290   -0.0038    2.5189 N   0  0  0  0  0  0  0  0  0  0  0  0
   -0.5370   -0.0030    3.8945 C   0  0  2  0  0  0  0  0  0  0  0  0
   -1.0812    1.1353    4.7404 C   0  0  0  0  0  0  0  0  0  0  0  0
   -0.6090    1.3295    6.0468 C   0  0  0  0  0  0  0  0  0  0  0  0
   -1.1126    2.3694    6.8272 C   0  0  0  0  0  0  0  0  0  0  0  0
   -2.0900    3.2151    6.3088 C   0  0  0  0  0  0  0  0  0  0  0  0
   -2.5677    3.0290    5.0078 C   0  0  0  0  0  0  0  0  0  0  0  0
   -2.0617    1.9884    4.2261 C   0  0  0  0  0  0  0  0  0  0  0  0
   -3.7874    4.0990    4.3805 Cl  0  0  0  0  0  0  0  0  0  0  0  0
   -2.5701    4.2081    7.0598 F   0  0  0  0  0  0  0  0  0  0  0  0
    0.0000    0.0000    0.0000 S   0  0  0  0  0  0  0  0  0  0  0  0
    2.1501    0.0186    1.9921 H   0  0  0  0  0  0  0  0  0  0  0  0
   -0.8159   -0.9612    4.3737 H   0  0  0  0  0  0  0  0  0  0  0  0
    0.1706    0.6782    6.4435 H   0  0  0  0  0  0  0  0  0  0  0  0
   -0.7578    2.5436    7.8446 H   0  0  0  0  0  0  0  0  0  0  0  0
   -2.4340    1.8393    3.2136 H   0  0  0  0  0  0  0  0  0  0  0  0
   -1.3499    0.0037   -0.0715 H   0  0  0  0  0  0  0  0  0  0  0  0
  2  6  1  0  0  0  0
  2  1  2  0  0  0  0
  3  2  1  0  0  0  0
  4  3  1  0  0  0  0
  4  5  2  0  0  0  0
  5  6  1  0  0  0  0
  6 17  1  1  0  0  0
  6  7  1  0  0  0  0
  7  8  1  0  0  0  0
  8 18  1  0  0  0  0
  8  9  2  0  0  0  0
  9 19  1  0  0  0  0
 10  9  1  0  0  0  0
 10 14  1  0  0  0  0
 11 10  2  0  0  0  0
 12  7  2  0  0  0  0
 12 11  1  0  0  0  0
 13 11  1  0  0  0  0
 15  4  1  0  0  0  0
 16  3  1  0  0  0  0
 20 12  1  0  0  0  0
 21 15  1  0  0  0  0
M  END
