313605061.xyz
 OpenBabel08132112103D
SCC1(CCCCC1)CSCC
 32 32  0  0  0  0  0  0  0  0999 V2000
    0.0000    0.0000    0.0000 S   0  0  0  0  0  0  0  0  0  0  0  0
   -0.0000   -0.0000    1.8362 C   0  0  0  0  0  0  0  0  0  0  0  0
    1.3780   -0.0000    2.5354 C   0  0  0  0  0  0  0  0  0  0  0  0
    1.1471   -0.0664    4.0643 C   0  0  0  0  0  0  0  0  0  0  0  0
    0.5994   -1.4123    4.5542 C   0  0  0  0  0  0  0  0  0  0  0  0
    1.4707   -2.5823    4.0881 C   0  0  0  0  0  0  0  0  0  0  0  0
    1.6725   -2.5556    2.5699 C   0  0  0  0  0  0  0  0  0  0  0  0
    2.2416   -1.2096    2.1121 C   0  0  0  0  0  0  0  0  0  0  0  0
    2.1534    1.2768    2.1507 C   0  0  0  0  0  0  0  0  0  0  0  0
    1.3658    2.8811    2.5541 S   0  0  0  0  0  0  0  0  0  0  0  0
    2.1342    3.2800    4.1713 C   0  0  0  0  0  0  0  0  0  0  0  0
    1.6919    4.6685    4.6171 C   0  0  0  0  0  0  0  0  0  0  0  0
    0.3182   -1.3032   -0.1713 H   0  0  0  0  0  0  0  0  0  0  0  0
   -0.6265   -0.8335    2.1758 H   0  0  0  0  0  0  0  0  0  0  0  0
   -0.5255    0.9280    2.1063 H   0  0  0  0  0  0  0  0  0  0  0  0
    0.4767    0.7541    4.3661 H   0  0  0  0  0  0  0  0  0  0  0  0
    2.1165    0.1190    4.5604 H   0  0  0  0  0  0  0  0  0  0  0  0
   -0.4323   -1.5571    4.1901 H   0  0  0  0  0  0  0  0  0  0  0  0
    0.5308   -1.4010    5.6546 H   0  0  0  0  0  0  0  0  0  0  0  0
    2.4587   -2.5149    4.5798 H   0  0  0  0  0  0  0  0  0  0  0  0
    1.0294   -3.5419    4.4046 H   0  0  0  0  0  0  0  0  0  0  0  0
    0.7085   -2.7497    2.0661 H   0  0  0  0  0  0  0  0  0  0  0  0
    2.3477   -3.3696    2.2585 H   0  0  0  0  0  0  0  0  0  0  0  0
    3.2463   -1.0830    2.5533 H   0  0  0  0  0  0  0  0  0  0  0  0
    2.3814   -1.1945    1.0195 H   0  0  0  0  0  0  0  0  0  0  0  0
    2.2922    1.2890    1.0597 H   0  0  0  0  0  0  0  0  0  0  0  0
    3.1545    1.2661    2.6095 H   0  0  0  0  0  0  0  0  0  0  0  0
    3.2293    3.2381    4.0523 H   0  0  0  0  0  0  0  0  0  0  0  0
    1.8483    2.5246    4.9178 H   0  0  0  0  0  0  0  0  0  0  0  0
    0.5988    4.7146    4.7451 H   0  0  0  0  0  0  0  0  0  0  0  0
    1.9785    5.4334    3.8786 H   0  0  0  0  0  0  0  0  0  0  0  0
    2.1579    4.9296    5.5806 H   0  0  0  0  0  0  0  0  0  0  0  0
  1  2  1  0  0  0  0
  2 15  1  0  0  0  0
  2 14  1  0  0  0  0
  2  3  1  0  0  0  0
  3  4  1  0  0  0  0
  4 16  1  0  0  0  0
  4  5  1  0  0  0  0
  4 17  1  0  0  0  0
  5 19  1  0  0  0  0
  6 21  1  0  0  0  0
  6  5  1  0  0  0  0
  6 20  1  0  0  0  0
  7  6  1  0  0  0  0
  8  3  1  0  0  0  0
  8 24  1  0  0  0  0
  8  7  1  0  0  0  0
  9  3  1  0  0  0  0
  9 10  1  0  0  0  0
  9 27  1  0  0  0  0
 10 11  1  0  0  0  0
 11 12  1  0  0  0  0
 11 29  1  0  0  0  0
 12 30  1  0  0  0  0
 12 32  1  0  0  0  0
 13  1  1  0  0  0  0
 18  5  1  0  0  0  0
 22  7  1  0  0  0  0
 23  7  1  0  0  0  0
 25  8  1  0  0  0  0
 26  9  1  0  0  0  0
 28 11  1  0  0  0  0
 31 12  1  0  0  0  0
M  END
