313609269.xyz
 OpenBabel08132112103D
CCCN1CC(C1)n1c(S)n[nH]c1=O
 28 29  0  0  0  0  0  0  0  0999 V2000
    6.1813    4.1187    0.3423 C   0  0  0  0  0  0  0  0  0  0  0  0
    5.4666    2.7694    0.3177 C   0  0  0  0  0  0  0  0  0  0  0  0
    4.8922    2.3767    1.6763 C   0  0  0  0  0  0  0  0  0  0  0  0
    4.2384    1.0895    1.6422 N   0  0  0  0  0  0  0  0  0  0  0  0
    3.6322    0.5671    2.8736 C   0  0  0  0  0  0  0  0  0  0  0  0
    2.5264   -0.0667    2.0028 C   0  0  0  0  0  0  0  0  0  0  0  0
    2.9683    0.9499    0.9230 C   0  0  0  0  0  0  0  0  0  0  0  0
    1.1689    0.0000    2.4945 N   0  0  0  0  0  0  0  0  0  0  0  0
    0.0000   -0.0000    1.7616 C   0  0  0  0  0  0  0  0  0  0  0  0
    0.0000    0.0000    0.0000 S   0  0  0  0  0  0  0  0  0  0  0  0
   -1.0599   -0.0141    2.5119 N   0  0  0  0  0  0  0  0  0  0  0  0
   -0.5619   -0.0372    3.7925 N   0  0  0  0  0  0  0  0  0  0  0  0
    0.8117   -0.0588    3.8604 C   0  0  0  0  0  0  0  0  0  0  0  0
    1.5466   -0.1142    4.8244 O   0  0  0  0  0  0  0  0  0  0  0  0
    5.4996    4.9288    0.6503 H   0  0  0  0  0  0  0  0  0  0  0  0
    6.5823    4.3801   -0.6492 H   0  0  0  0  0  0  0  0  0  0  0  0
    7.0256    4.1107    1.0516 H   0  0  0  0  0  0  0  0  0  0  0  0
    6.1535    1.9718   -0.0118 H   0  0  0  0  0  0  0  0  0  0  0  0
    4.6491    2.7969   -0.4250 H   0  0  0  0  0  0  0  0  0  0  0  0
    5.7058    2.3230    2.4210 H   0  0  0  0  0  0  0  0  0  0  0  0
    4.1953    3.1755    2.0301 H   0  0  0  0  0  0  0  0  0  0  0  0
    3.2196    1.3541    3.5328 H   0  0  0  0  0  0  0  0  0  0  0  0
    4.2568   -0.1072    3.4782 H   0  0  0  0  0  0  0  0  0  0  0  0
    2.7781   -1.0987    1.7124 H   0  0  0  0  0  0  0  0  0  0  0  0
    3.0349    0.6009   -0.1197 H   0  0  0  0  0  0  0  0  0  0  0  0
    2.3372    1.8635    0.9584 H   0  0  0  0  0  0  0  0  0  0  0  0
   -1.3495   -0.0531   -0.0642 H   0  0  0  0  0  0  0  0  0  0  0  0
   -1.1855   -0.0763    4.5877 H   0  0  0  0  0  0  0  0  0  0  0  0
  1 15  1  0  0  0  0
  1 17  1  0  0  0  0
  2  1  1  0  0  0  0
  2  3  1  0  0  0  0
  3 21  1  0  0  0  0
  3 20  1  0  0  0  0
  4  3  1  0  0  0  0
  4  5  1  0  0  0  0
  5 23  1  0  0  0  0
  5 22  1  0  0  0  0
  6  8  1  0  0  0  0
  6  5  1  0  0  0  0
  7 26  1  0  0  0  0
  7  4  1  0  0  0  0
  7  6  1  0  0  0  0
  8 13  1  0  0  0  0
  9  8  1  0  0  0  0
  9 11  2  0  0  0  0
 10  9  1  0  0  0  0
 11 12  1  0  0  0  0
 12 13  1  0  0  0  0
 12 28  1  0  0  0  0
 13 14  2  0  0  0  0
 16  1  1  0  0  0  0
 18  2  1  0  0  0  0
 19  2  1  0  0  0  0
 24  6  1  0  0  0  0
 25  7  1  0  0  0  0
 27 10  1  0  0  0  0
M  END
