313642950.xyz
 OpenBabel08132112103D
SCC(CSc1ncc(cn1)C)C
 27 27  0  0  1  0  0  0  0  0999 V2000
    0.0000    0.0000    0.0000 S   0  0  0  0  0  0  0  0  0  0  0  0
    0.0000    0.0000    1.8381 C   0  0  0  0  0  0  0  0  0  0  0  0
    1.3788    0.0000    2.5161 C   0  0  2  0  0  0  0  0  0  0  0  0
    2.1527   -1.2745    2.1559 C   0  0  0  0  0  0  0  0  0  0  0  0
    3.8597   -1.3421    2.8033 S   0  0  0  0  0  0  0  0  0  0  0  0
    3.6820   -2.3235    4.2655 C   0  0  0  0  0  0  0  0  0  0  0  0
    4.8249   -2.4784    4.9491 N   0  0  0  0  0  0  0  0  0  0  0  0
    4.7653   -3.2161    6.0505 C   0  0  0  0  0  0  0  0  0  0  0  0
    3.5827   -3.8211    6.5115 C   0  0  2  0  0  0  0  0  0  0  0  0
    2.4633   -3.5872    5.7075 C   0  0  0  0  0  0  0  0  0  0  0  0
    2.5033   -2.8494    4.5967 N   0  0  0  0  0  0  0  0  0  0  0  0
    3.5340   -4.6474    7.7657 C   0  0  0  0  0  0  0  0  0  0  0  0
    1.2081    0.1865    4.0260 C   0  0  0  0  0  0  0  0  0  0  0  0
    0.2203   -1.3224   -0.1742 H   0  0  0  0  0  0  0  0  0  0  0  0
   -0.6115   -0.8434    2.1963 H   0  0  0  0  0  0  0  0  0  0  0  0
   -0.5409    0.9199    2.1077 H   0  0  0  0  0  0  0  0  0  0  0  0
    1.9434    0.8608    2.1164 H   0  0  0  0  0  0  0  0  0  0  0  0
    1.6343   -2.1720    2.5237 H   0  0  0  0  0  0  0  0  0  0  0  0
    2.2631   -1.3463    1.0650 H   0  0  0  0  0  0  0  0  0  0  0  0
    5.7030   -3.3416    6.6078 H   0  0  0  0  0  0  0  0  0  0  0  0
    1.4897   -4.0168    5.9755 H   0  0  0  0  0  0  0  0  0  0  0  0
    2.5274   -5.0588    7.9315 H   0  0  0  0  0  0  0  0  0  0  0  0
    4.2400   -5.4927    7.7183 H   0  0  0  0  0  0  0  0  0  0  0  0
    3.8026   -4.0494    8.6522 H   0  0  0  0  0  0  0  0  0  0  0  0
    0.6666    1.1203    4.2457 H   0  0  0  0  0  0  0  0  0  0  0  0
    0.6507   -0.6534    4.4685 H   0  0  0  0  0  0  0  0  0  0  0  0
    2.1872    0.2382    4.5245 H   0  0  0  0  0  0  0  0  0  0  0  0
  1  2  1  0  0  0  0
  2 16  1  0  0  0  0
  2 15  1  0  0  0  0
  2  3  1  0  0  0  0
  3 17  1  6  0  0  0
  3 13  1  0  0  0  0
  4  3  1  0  0  0  0
  4 18  1  0  0  0  0
  4  5  1  0  0  0  0
  5  6  1  0  0  0  0
  6 11  2  0  0  0  0
  6  7  2  0  0  0  0
  7  8  2  0  0  0  0
  8  9  1  0  0  0  0
  8 20  1  0  0  0  0
  9 12  1  1  0  0  0
 10 21  1  0  0  0  0
 10  9  1  0  0  0  0
 11 10  2  0  0  0  0
 12 22  1  0  0  0  0
 12 24  1  0  0  0  0
 13 25  1  0  0  0  0
 13 26  1  0  0  0  0
 13 27  1  0  0  0  0
 14  1  1  0  0  0  0
 19  4  1  0  0  0  0
 23 12  1  0  0  0  0
M  RAD  1   9   2
M  END
