313625800.xyz
 OpenBabel08132112103D
SCCCN(C1CCCCC1C)C
 36 36  0  0  1  0  0  0  0  0999 V2000
    0.0000    0.0000    0.0000 S   0  0  0  0  0  0  0  0  0  0  0  0
   -0.0000   -0.0000    1.8392 C   0  0  0  0  0  0  0  0  0  0  0  0
    1.3859    0.0000    2.4952 C   0  0  0  0  0  0  0  0  0  0  0  0
    2.3150    1.1916    2.2180 C   0  0  0  0  0  0  0  0  0  0  0  0
    2.1869    2.3102    3.1420 N   0  0  0  0  0  0  0  0  0  0  0  0
    3.3515    3.2099    3.1046 C   0  0  1  0  0  0  0  0  0  0  0  0
    3.4819    4.1012    1.8420 C   0  0  0  0  0  0  0  0  0  0  0  0
    2.7355    5.4382    1.9082 C   0  0  0  0  0  0  0  0  0  0  0  0
    3.1322    6.2231    3.1603 C   0  0  0  0  0  0  0  0  0  0  0  0
    2.8573    5.4065    4.4261 C   0  0  0  0  0  0  0  0  0  0  0  0
    3.5399    4.0205    4.4199 C   0  0  2  0  0  0  0  0  0  0  0  0
    5.0362    4.1605    4.7383 C   0  0  0  0  0  0  0  0  0  0  0  0
    0.8729    2.9177    3.1330 C   0  0  0  0  0  0  0  0  0  0  0  0
    0.3325    1.2994   -0.1673 H   0  0  0  0  0  0  0  0  0  0  0  0
   -0.5263   -0.9307    2.1012 H   0  0  0  0  0  0  0  0  0  0  0  0
   -0.6359    0.8259    2.1824 H   0  0  0  0  0  0  0  0  0  0  0  0
    1.2651   -0.0944    3.5891 H   0  0  0  0  0  0  0  0  0  0  0  0
    1.9031   -0.9117    2.1558 H   0  0  0  0  0  0  0  0  0  0  0  0
    2.1909    1.4986    1.1540 H   0  0  0  0  0  0  0  0  0  0  0  0
    3.3517    0.8303    2.2986 H   0  0  0  0  0  0  0  0  0  0  0  0
    4.2029    2.5126    3.0686 H   0  0  0  0  0  0  0  0  0  0  0  0
    4.5540    4.3175    1.6902 H   0  0  0  0  0  0  0  0  0  0  0  0
    3.1686    3.5243    0.9565 H   0  0  0  0  0  0  0  0  0  0  0  0
    1.6456    5.2726    1.9109 H   0  0  0  0  0  0  0  0  0  0  0  0
    2.9535    6.0270    1.0014 H   0  0  0  0  0  0  0  0  0  0  0  0
    2.5889    7.1815    3.2057 H   0  0  0  0  0  0  0  0  0  0  0  0
    4.2049    6.4803    3.1028 H   0  0  0  0  0  0  0  0  0  0  0  0
    1.7672    5.2935    4.5391 H   0  0  0  0  0  0  0  0  0  0  0  0
    3.1904    5.9631    5.3183 H   0  0  0  0  0  0  0  0  0  0  0  0
    3.0873    3.4072    5.2162 H   0  0  0  0  0  0  0  0  0  0  0  0
    5.5758    4.7072    3.9482 H   0  0  0  0  0  0  0  0  0  0  0  0
    5.5146    3.1740    4.8422 H   0  0  0  0  0  0  0  0  0  0  0  0
    5.1891    4.7100    5.6807 H   0  0  0  0  0  0  0  0  0  0  0  0
    0.8436    3.7839    3.8023 H   0  0  0  0  0  0  0  0  0  0  0  0
    0.1211    2.2083    3.5091 H   0  0  0  0  0  0  0  0  0  0  0  0
    0.5352    3.2550    2.1259 H   0  0  0  0  0  0  0  0  0  0  0  0
  1  2  1  0  0  0  0
  2 15  1  0  0  0  0
  2 16  1  0  0  0  0
  2  3  1  0  0  0  0
  3 17  1  0  0  0  0
  4 20  1  0  0  0  0
  4  3  1  0  0  0  0
  4  5  1  0  0  0  0
  6  5  1  0  0  0  0
  6 11  1  1  0  0  0
  7  8  1  0  0  0  0
  7  6  1  0  0  0  0
  8 24  1  0  0  0  0
  8  9  1  0  0  0  0
  9 26  1  0  0  0  0
  9 10  1  0  0  0  0
 10 28  1  0  0  0  0
 10 29  1  0  0  0  0
 11 10  1  0  0  0  0
 11 12  1  0  0  0  0
 11 30  1  1  0  0  0
 12 32  1  0  0  0  0
 12 33  1  0  0  0  0
 13  5  1  0  0  0  0
 13 35  1  0  0  0  0
 13 34  1  0  0  0  0
 14  1  1  0  0  0  0
 18  3  1  0  0  0  0
 19  4  1  0  0  0  0
 21  6  1  0  0  0  0
 22  7  1  0  0  0  0
 23  7  1  0  0  0  0
 25  8  1  0  0  0  0
 27  9  1  0  0  0  0
 31 12  1  0  0  0  0
 36 13  1  0  0  0  0
M  END
