313631480.xyz
 OpenBabel08132112103D
SCCCN(C1CCS(=O)(=O)C1)C
 30 30  0  0  1  0  0  0  0  0999 V2000
    0.0000    0.0000    0.0000 S   0  0  0  0  0  0  0  0  0  0  0  0
   -0.0000   -0.0000    1.8373 C   0  0  0  0  0  0  0  0  0  0  0  0
    1.3821    0.0000    2.4846 C   0  0  0  0  0  0  0  0  0  0  0  0
    2.2273   -1.2371    2.1738 C   0  0  0  0  0  0  0  0  0  0  0  0
    1.5812   -2.4830    2.5826 N   0  0  0  0  0  0  0  0  0  0  0  0
    1.8880   -3.6388    1.7569 C   0  0  1  0  0  0  0  0  0  0  0  0
    1.1890   -3.5424    0.3662 C   0  0  0  0  0  0  0  0  0  0  0  0
    2.0125   -4.2992   -0.6671 C   0  0  0  0  0  0  0  0  0  0  0  0
    3.7188   -3.8360   -0.2395 S   0  0  0  0  0  0  0  0  0  0  0  0
    3.8951   -2.4160   -0.5931 O   0  0  0  0  0  0  0  0  0  0  0  0
    4.6893   -4.8435   -0.6802 O   0  0  0  0  0  0  0  0  0  0  0  0
    3.4092   -3.9360    1.5531 C   0  0  0  0  0  0  0  0  0  0  0  0
    1.7029   -2.7418    4.0035 C   0  0  0  0  0  0  0  0  0  0  0  0
    0.7667    1.1039   -0.1607 H   0  0  0  0  0  0  0  0  0  0  0  0
   -0.5308   -0.9261    2.1039 H   0  0  0  0  0  0  0  0  0  0  0  0
   -0.6001    0.8497    2.1948 H   0  0  0  0  0  0  0  0  0  0  0  0
    1.9465    0.8953    2.1718 H   0  0  0  0  0  0  0  0  0  0  0  0
    1.2424    0.1000    3.5757 H   0  0  0  0  0  0  0  0  0  0  0  0
    3.2184   -1.1203    2.6624 H   0  0  0  0  0  0  0  0  0  0  0  0
    2.4298   -1.2736    1.0952 H   0  0  0  0  0  0  0  0  0  0  0  0
    1.4684   -4.5120    2.2778 H   0  0  0  0  0  0  0  0  0  0  0  0
    0.1632   -3.9307    0.4370 H   0  0  0  0  0  0  0  0  0  0  0  0
    1.1146   -2.4889    0.0646 H   0  0  0  0  0  0  0  0  0  0  0  0
    1.9546   -5.3948   -0.5791 H   0  0  0  0  0  0  0  0  0  0  0  0
    1.8399   -3.9958   -1.7081 H   0  0  0  0  0  0  0  0  0  0  0  0
    3.7014   -4.9495    1.8571 H   0  0  0  0  0  0  0  0  0  0  0  0
    4.0750   -3.2050    2.0285 H   0  0  0  0  0  0  0  0  0  0  0  0
    1.3305   -1.8827    4.5805 H   0  0  0  0  0  0  0  0  0  0  0  0
    1.0978   -3.6172    4.2864 H   0  0  0  0  0  0  0  0  0  0  0  0
    2.7515   -2.9285    4.3295 H   0  0  0  0  0  0  0  0  0  0  0  0
  1  2  1  0  0  0  0
  2 15  1  0  0  0  0
  2 16  1  0  0  0  0
  2  3  1  0  0  0  0
  3 18  1  0  0  0  0
  4  3  1  0  0  0  0
  4  5  1  0  0  0  0
  4 19  1  0  0  0  0
  5 13  1  0  0  0  0
  6 21  1  1  0  0  0
  6  5  1  0  0  0  0
  7 22  1  0  0  0  0
  7  6  1  0  0  0  0
  8 24  1  0  0  0  0
  8  9  1  0  0  0  0
  8  7  1  0  0  0  0
  9 12  1  0  0  0  0
 10  9  2  0  0  0  0
 11  9  2  0  0  0  0
 12  6  1  0  0  0  0
 12 26  1  0  0  0  0
 12 27  1  0  0  0  0
 13 29  1  0  0  0  0
 13 30  1  0  0  0  0
 13 28  1  0  0  0  0
 14  1  1  0  0  0  0
 17  3  1  0  0  0  0
 20  4  1  0  0  0  0
 23  7  1  0  0  0  0
 25  8  1  0  0  0  0
M  END
