313697605.xyz
 OpenBabel08132112103D
COCCCn1c(S)ncc1C
 26 26  0  0  1  0  0  0  0  0999 V2000
    3.9037   -1.8597   -1.5446 C   0  0  0  0  0  0  0  0  0  0  0  0
    3.1312   -1.7033   -0.3824 O   0  0  0  0  0  0  0  0  0  0  0  0
    3.8168   -1.9872    0.8175 C   0  0  0  0  0  0  0  0  0  0  0  0
    2.8758   -1.6975    1.9739 C   0  0  0  0  0  0  0  0  0  0  0  0
    2.4935   -0.2076    2.0608 C   0  0  0  0  0  0  0  0  0  0  0  0
    1.1446   -0.0000    2.5430 N   0  0  0  0  0  0  0  0  0  0  0  0
   -0.0000   -0.0000    1.7695 C   0  0  0  0  0  0  0  0  0  0  0  0
    0.0000    0.0000    0.0000 S   0  0  0  0  0  0  0  0  0  0  0  0
   -1.0818    0.1184    2.5036 N   0  0  0  0  0  0  0  0  0  0  0  0
   -0.6427    0.1850    3.8033 C   0  0  0  0  0  0  0  0  0  0  0  0
    0.7318    0.0961    3.8659 C   0  0  1  0  0  0  0  0  0  0  0  0
    1.6789    0.0889    5.0166 C   0  0  0  0  0  0  0  0  0  0  0  0
    4.7865   -1.1901   -1.5433 H   0  0  0  0  0  0  0  0  0  0  0  0
    3.2696   -1.6052   -2.4055 H   0  0  0  0  0  0  0  0  0  0  0  0
    4.2620   -2.9014   -1.6626 H   0  0  0  0  0  0  0  0  0  0  0  0
    4.1404   -3.0473    0.8377 H   0  0  0  0  0  0  0  0  0  0  0  0
    4.7356   -1.3666    0.8891 H   0  0  0  0  0  0  0  0  0  0  0  0
    1.9598   -2.2909    1.8242 H   0  0  0  0  0  0  0  0  0  0  0  0
    3.3273   -2.0439    2.9171 H   0  0  0  0  0  0  0  0  0  0  0  0
    3.1906    0.3416    2.7106 H   0  0  0  0  0  0  0  0  0  0  0  0
    2.5512    0.2436    1.0604 H   0  0  0  0  0  0  0  0  0  0  0  0
    0.9842   -0.9160   -0.1831 H   0  0  0  0  0  0  0  0  0  0  0  0
   -1.3355    0.2872    4.6382 H   0  0  0  0  0  0  0  0  0  0  0  0
    1.1160    0.1757    5.9564 H   0  0  0  0  0  0  0  0  0  0  0  0
    2.3923    0.9306    4.9780 H   0  0  0  0  0  0  0  0  0  0  0  0
    2.2710   -0.8415    5.0679 H   0  0  0  0  0  0  0  0  0  0  0  0
  1 13  1  0  0  0  0
  1  2  1  0  0  0  0
  2  3  1  0  0  0  0
  3 16  1  0  0  0  0
  3 17  1  0  0  0  0
  3  4  1  0  0  0  0
  4  5  1  0  0  0  0
  4 19  1  0  0  0  0
  5  6  1  0  0  0  0
  5 20  1  0  0  0  0
  6 11  1  0  0  0  0
  7  9  2  0  0  0  0
  7  6  1  0  0  0  0
  8  7  1  0  0  0  0
  9 10  2  0  0  0  0
 10 11  1  0  0  0  0
 10 23  1  0  0  0  0
 11 12  1  1  0  0  0
 12 26  1  0  0  0  0
 12 24  1  0  0  0  0
 14  1  1  0  0  0  0
 15  1  1  0  0  0  0
 18  4  1  0  0  0  0
 21  5  1  0  0  0  0
 22  8  1  0  0  0  0
 25 12  1  0  0  0  0
M  RAD  1  11   2
M  END
