313797625.xyz
 OpenBabel08132112103D
SCCc1cccc2c1CCC2
 26 27  0  0  0  0  0  0  0  0999 V2000
    0.0000    0.0000    0.0000 S   0  0  0  0  0  0  0  0  0  0  0  0
    0.0000   -0.0000    1.8401 C   0  0  0  0  0  0  0  0  0  0  0  0
    1.4455    0.0000    2.3496 C   0  0  0  0  0  0  0  0  0  0  0  0
    1.5045    0.0215    3.8582 C   0  0  0  0  0  0  0  0  0  0  0  0
    1.6784   -1.1657    4.5888 C   0  0  0  0  0  0  0  0  0  0  0  0
    1.6936   -1.1646    5.9866 C   0  0  0  0  0  0  0  0  0  0  0  0
    1.5339    0.0309    6.6962 C   0  0  0  0  0  0  0  0  0  0  0  0
    1.3661    1.2178    5.9837 C   0  0  0  0  0  0  0  0  0  0  0  0
    1.3508    1.2139    4.5793 C   0  0  0  0  0  0  0  0  0  0  0  0
    1.1394    2.6192    4.0566 C   0  0  0  0  0  0  0  0  0  0  0  0
    1.4755    3.5039    5.2788 C   0  0  0  0  0  0  0  0  0  0  0  0
    1.1609    2.6219    6.5079 C   0  0  0  0  0  0  0  0  0  0  0  0
   -1.3434   -0.0116   -0.1570 H   0  0  0  0  0  0  0  0  0  0  0  0
   -0.5323    0.8901    2.2067 H   0  0  0  0  0  0  0  0  0  0  0  0
   -0.5271   -0.8910    2.2127 H   0  0  0  0  0  0  0  0  0  0  0  0
    1.9707    0.8754    1.9333 H   0  0  0  0  0  0  0  0  0  0  0  0
    1.9613   -0.8943    1.9651 H   0  0  0  0  0  0  0  0  0  0  0  0
    1.8121   -2.1069    4.0480 H   0  0  0  0  0  0  0  0  0  0  0  0
    1.8382   -2.1040    6.5260 H   0  0  0  0  0  0  0  0  0  0  0  0
    1.5488    0.0329    7.7892 H   0  0  0  0  0  0  0  0  0  0  0  0
    1.7547    2.8555    3.1742 H   0  0  0  0  0  0  0  0  0  0  0  0
    0.0865    2.7574    3.7472 H   0  0  0  0  0  0  0  0  0  0  0  0
    2.5530    3.7365    5.2681 H   0  0  0  0  0  0  0  0  0  0  0  0
    0.9326    4.4606    5.2814 H   0  0  0  0  0  0  0  0  0  0  0  0
    1.7897    2.8556    7.3813 H   0  0  0  0  0  0  0  0  0  0  0  0
    0.1106    2.7527    6.8291 H   0  0  0  0  0  0  0  0  0  0  0  0
  1  2  1  0  0  0  0
  2 14  1  0  0  0  0
  2 15  1  0  0  0  0
  2  3  1  0  0  0  0
  3  4  1  0  0  0  0
  4  9  2  0  0  0  0
  4  5  1  0  0  0  0
  5  6  2  0  0  0  0
  6 19  1  0  0  0  0
  6  7  1  0  0  0  0
  7 20  1  0  0  0  0
  8 12  1  0  0  0  0
  8  7  2  0  0  0  0
  9  8  1  0  0  0  0
 10  9  1  0  0  0  0
 10 11  1  0  0  0  0
 11 24  1  0  0  0  0
 11 12  1  0  0  0  0
 12 26  1  0  0  0  0
 12 25  1  0  0  0  0
 13  1  1  0  0  0  0
 16  3  1  0  0  0  0
 17  3  1  0  0  0  0
 18  5  1  0  0  0  0
 21 10  1  0  0  0  0
 22 10  1  0  0  0  0
 23 11  1  0  0  0  0
M  END
