313718477.xyz
 OpenBabel08132112103D
SCC(Cn1cnc(c1C#N)C#N)(C)C
 27 27  0  0  1  0  0  0  0  0999 V2000
    0.0000    0.0000    0.0000 S   0  0  0  0  0  0  0  0  0  0  0  0
    0.0000   -0.0000    1.8489 C   0  0  0  0  0  0  0  0  0  0  0  0
    1.3926    0.0000    2.5207 C   0  0  0  0  0  0  0  0  0  0  0  0
    2.0717   -1.3920    2.5042 C   0  0  0  0  0  0  0  0  0  0  0  0
    2.3837   -1.9652    1.1997 N   0  0  0  0  0  0  0  0  0  0  0  0
    3.4658   -1.6913    0.4148 C   0  0  0  0  0  0  0  0  0  0  0  0
    3.4431   -2.3427   -0.7279 N   0  0  0  0  0  0  0  0  0  0  0  0
    2.2929   -3.0801   -0.7072 C   0  0  0  0  0  0  0  0  0  0  0  0
    1.6093   -2.8629    0.4929 C   0  0  2  0  0  0  0  0  0  0  0  0
    0.3725   -3.3504    0.9719 C   0  0  0  0  0  0  0  0  0  0  0  0
   -0.6539   -3.7050    1.3866 N   0  0  0  0  0  0  0  0  0  0  0  0
    1.8827   -3.9300   -1.7761 C   0  0  0  0  0  0  0  0  0  0  0  0
    1.5286   -4.6243   -2.6355 N   0  0  0  0  0  0  0  0  0  0  0  0
    1.1747    0.3271    4.0110 C   0  0  0  0  0  0  0  0  0  0  0  0
    2.3026    1.0652    1.8942 C   0  0  0  0  0  0  0  0  0  0  0  0
   -0.8277   -1.0552   -0.1532 H   0  0  0  0  0  0  0  0  0  0  0  0
   -0.5328    0.9077    2.1686 H   0  0  0  0  0  0  0  0  0  0  0  0
   -0.5912   -0.8603    2.1914 H   0  0  0  0  0  0  0  0  0  0  0  0
    3.0182   -1.3279    3.0615 H   0  0  0  0  0  0  0  0  0  0  0  0
    1.4345   -2.1168    3.0305 H   0  0  0  0  0  0  0  0  0  0  0  0
    4.2517   -1.0115    0.7408 H   0  0  0  0  0  0  0  0  0  0  0  0
    2.1274    0.3151    4.5641 H   0  0  0  0  0  0  0  0  0  0  0  0
    0.4954   -0.3978    4.4876 H   0  0  0  0  0  0  0  0  0  0  0  0
    0.7339    1.3286    4.1250 H   0  0  0  0  0  0  0  0  0  0  0  0
    1.8421    2.0615    1.9827 H   0  0  0  0  0  0  0  0  0  0  0  0
    3.2778    1.1012    2.4059 H   0  0  0  0  0  0  0  0  0  0  0  0
    2.4782    0.8752    0.8254 H   0  0  0  0  0  0  0  0  0  0  0  0
  1  2  1  0  0  0  0
  2 17  1  0  0  0  0
  2 18  1  0  0  0  0
  2  3  1  0  0  0  0
  3 14  1  0  0  0  0
  4  3  1  0  0  0  0
  4 20  1  0  0  0  0
  4 19  1  0  0  0  0
  5  4  1  0  0  0  0
  6 21  1  0  0  0  0
  6  5  1  0  0  0  0
  7  8  2  0  0  0  0
  7  6  2  0  0  0  0
  8  9  1  0  0  0  0
  9 10  1  6  0  0  0
  9  5  1  0  0  0  0
 10 11  3  0  0  0  0
 12  8  1  0  0  0  0
 13 12  3  0  0  0  0
 14 24  1  0  0  0  0
 14 23  1  0  0  0  0
 14 22  1  0  0  0  0
 15 25  1  0  0  0  0
 15 26  1  0  0  0  0
 15  3  1  0  0  0  0
 16  1  1  0  0  0  0
 27 15  1  0  0  0  0
M  RAD  1   9   2
M  END
