313850800.xyz
 OpenBabel08132112103D
C[C@@H]1CCC(O1)CCCS
 26 26  0  0  1  0  0  0  0  0999 V2000
    5.7680   -2.2264    3.8895 C   0  0  0  0  0  0  0  0  0  0  0  0
    4.8795   -1.0615    3.4947 C   0  0  2  0  0  0  0  0  0  0  0  0
    5.2520    0.2940    4.1064 C   0  0  0  0  0  0  0  0  0  0  0  0
    3.9055    1.0190    4.1089 C   0  0  0  0  0  0  0  0  0  0  0  0
    2.9290   -0.1215    4.4375 C   0  0  2  0  0  0  0  0  0  0  0  0
    3.5415   -1.3115    3.9345 O   0  0  0  0  0  0  0  0  0  0  0  0
    1.5133    0.0085    3.8762 C   0  0  0  0  0  0  0  0  0  0  0  0
    1.4382    0.0000    2.3486 C   0  0  0  0  0  0  0  0  0  0  0  0
    0.0000   -0.0000    1.8403 C   0  0  0  0  0  0  0  0  0  0  0  0
    0.0000    0.0000    0.0000 S   0  0  0  0  0  0  0  0  0  0  0  0
    5.3907   -3.1642    3.4548 H   0  0  0  0  0  0  0  0  0  0  0  0
    5.7870   -2.3388    4.9852 H   0  0  0  0  0  0  0  0  0  0  0  0
    6.7981   -2.0688    3.5318 H   0  0  0  0  0  0  0  0  0  0  0  0
    4.8741   -0.9688    2.3887 H   0  0  0  0  0  0  0  0  0  0  0  0
    6.0371    0.8152    3.5389 H   0  0  0  0  0  0  0  0  0  0  0  0
    5.6159    0.1496    5.1380 H   0  0  0  0  0  0  0  0  0  0  0  0
    3.6971    1.4369    3.1114 H   0  0  0  0  0  0  0  0  0  0  0  0
    3.8442    1.8413    4.8367 H   0  0  0  0  0  0  0  0  0  0  0  0
    2.8491   -0.2142    5.5389 H   0  0  0  0  0  0  0  0  0  0  0  0
    0.9160   -0.8322    4.2686 H   0  0  0  0  0  0  0  0  0  0  0  0
    1.0589    0.9302    4.2818 H   0  0  0  0  0  0  0  0  0  0  0  0
    1.9633    0.8751    1.9302 H   0  0  0  0  0  0  0  0  0  0  0  0
    1.9646   -0.8937    1.9771 H   0  0  0  0  0  0  0  0  0  0  0  0
   -0.5367    0.8909    2.2029 H   0  0  0  0  0  0  0  0  0  0  0  0
   -0.5340   -0.8913    2.2051 H   0  0  0  0  0  0  0  0  0  0  0  0
   -1.3430    0.0236   -0.1604 H   0  0  0  0  0  0  0  0  0  0  0  0
  1 12  1  0  0  0  0
  2 14  1  6  0  0  0
  2  1  1  0  0  0  0
  2  6  1  0  0  0  0
  2  3  1  0  0  0  0
  3  4  1  0  0  0  0
  3 16  1  0  0  0  0
  4  5  1  0  0  0  0
  4 18  1  0  0  0  0
  5 19  1  1  0  0  0
  6  5  1  0  0  0  0
  7 20  1  0  0  0  0
  7 21  1  0  0  0  0
  7  5  1  0  0  0  0
  8  7  1  0  0  0  0
  9 24  1  0  0  0  0
  9 25  1  0  0  0  0
  9  8  1  0  0  0  0
 10  9  1  0  0  0  0
 11  1  1  0  0  0  0
 13  1  1  0  0  0  0
 15  3  1  0  0  0  0
 17  4  1  0  0  0  0
 22  8  1  0  0  0  0
 23  8  1  0  0  0  0
 26 10  1  0  0  0  0
M  END
