313881813.xyz
 OpenBabel08132112103D
SCCCC(=C)C
 19 18  0  0  0  0  0  0  0  0999 V2000
    0.0000    0.0000    0.0000 S   0  0  0  0  0  0  0  0  0  0  0  0
    0.0000    0.0000    1.8395 C   0  0  0  0  0  0  0  0  0  0  0  0
    1.3822   -0.0000    2.4904 C   0  0  0  0  0  0  0  0  0  0  0  0
    2.1946   -1.2748    2.2248 C   0  0  0  0  0  0  0  0  0  0  0  0
    3.5267   -1.3127    2.9376 C   0  0  0  0  0  0  0  0  0  0  0  0
    3.7844   -2.2138    3.8951 C   0  0  0  0  0  0  0  0  0  0  0  0
    4.5444   -0.2864    2.5115 C   0  0  0  0  0  0  0  0  0  0  0  0
    0.3403   -1.2975   -0.1694 H   0  0  0  0  0  0  0  0  0  0  0  0
   -0.5456    0.9180    2.1058 H   0  0  0  0  0  0  0  0  0  0  0  0
   -0.6085   -0.8472    2.1932 H   0  0  0  0  0  0  0  0  0  0  0  0
    1.2495    0.1183    3.5809 H   0  0  0  0  0  0  0  0  0  0  0  0
    1.9385    0.8842    2.1393 H   0  0  0  0  0  0  0  0  0  0  0  0
    2.3682   -1.3540    1.1363 H   0  0  0  0  0  0  0  0  0  0  0  0
    1.5953   -2.1529    2.5193 H   0  0  0  0  0  0  0  0  0  0  0  0
    4.7492   -2.2421    4.4096 H   0  0  0  0  0  0  0  0  0  0  0  0
    3.0393   -2.9567    4.1947 H   0  0  0  0  0  0  0  0  0  0  0  0
    5.5030   -0.4225    3.0323 H   0  0  0  0  0  0  0  0  0  0  0  0
    4.1910    0.7390    2.7133 H   0  0  0  0  0  0  0  0  0  0  0  0
    4.7273   -0.3442    1.4242 H   0  0  0  0  0  0  0  0  0  0  0  0
  1  2  1  0  0  0  0
  2  9  1  0  0  0  0
  2 10  1  0  0  0  0
  2  3  1  0  0  0  0
  3 11  1  0  0  0  0
  4  3  1  0  0  0  0
  4 14  1  0  0  0  0
  4  5  1  0  0  0  0
  5  6  2  0  0  0  0
  6 16  1  0  0  0  0
  6 15  1  0  0  0  0
  7 18  1  0  0  0  0
  7  5  1  0  0  0  0
  7 17  1  0  0  0  0
  8  1  1  0  0  0  0
 12  3  1  0  0  0  0
 13  4  1  0  0  0  0
 19  7  1  0  0  0  0
M  END
