313831816.xyz
 OpenBabel08132112103D
Fc1ccc(cc1C)S(=O)(=O)Nc1ccc(cc1)c1nnc(n1c1ccccc1)S
 47 50  0  0  0  0  0  0  0  0999 V2000
   -6.0552    4.0778    3.4964 F   0  0  0  0  0  0  0  0  0  0  0  0
   -5.7039    3.6674    4.7294 C   0  0  0  0  0  0  0  0  0  0  0  0
   -6.6584    3.0177    5.5073 C   0  0  0  0  0  0  0  0  0  0  0  0
   -6.3048    2.5792    6.7826 C   0  0  0  0  0  0  0  0  0  0  0  0
   -5.0020    2.8065    7.2310 C   0  0  0  0  0  0  0  0  0  0  0  0
   -4.0573    3.4654    6.4408 C   0  0  0  0  0  0  0  0  0  0  0  0
   -4.3940    3.9140    5.1585 C   0  0  0  0  0  0  0  0  0  0  0  0
   -3.4213    4.6527    4.2813 C   0  0  0  0  0  0  0  0  0  0  0  0
   -4.4959    2.1275    8.8076 S   0  0  0  0  0  0  0  0  0  0  0  0
   -5.6718    1.9648    9.6592 O   0  0  0  0  0  0  0  0  0  0  0  0
   -3.3002    2.8463    9.2364 O   0  0  0  0  0  0  0  0  0  0  0  0
   -4.0259    0.5302    8.4230 N   0  0  0  0  0  0  0  0  0  0  0  0
   -3.1818    0.3320    7.3036 C   0  0  0  0  0  0  0  0  0  0  0  0
   -3.6531   -0.3465    6.1714 C   0  0  0  0  0  0  0  0  0  0  0  0
   -2.8520   -0.4703    5.0403 C   0  0  0  0  0  0  0  0  0  0  0  0
   -1.5729    0.1110    5.0068 C   0  0  0  0  0  0  0  0  0  0  0  0
   -1.0941    0.7596    6.1598 C   0  0  0  0  0  0  0  0  0  0  0  0
   -1.8824    0.8623    7.3013 C   0  0  0  0  0  0  0  0  0  0  0  0
   -0.7132    0.0572    3.8212 C   0  0  0  0  0  0  0  0  0  0  0  0
    0.6002    0.0366    3.8344 N   0  0  0  0  0  0  0  0  0  0  0  0
    1.0512    0.0000    2.5420 N   0  0  0  0  0  0  0  0  0  0  0  0
   -0.0000   -0.0000    1.7586 C   0  0  0  0  0  0  0  0  0  0  0  0
   -1.1602    0.0347    2.5021 N   0  0  0  0  0  0  0  0  0  0  0  0
   -2.4861    0.1961    2.0051 C   0  0  0  0  0  0  0  0  0  0  0  0
   -3.0449   -0.7848    1.1797 C   0  0  0  0  0  0  0  0  0  0  0  0
   -4.3471   -0.6191    0.7013 C   0  0  0  0  0  0  0  0  0  0  0  0
   -5.0896    0.5093    1.0590 C   0  0  0  0  0  0  0  0  0  0  0  0
   -4.5264    1.4844    1.8895 C   0  0  0  0  0  0  0  0  0  0  0  0
   -3.2208    1.3343    2.3563 C   0  0  0  0  0  0  0  0  0  0  0  0
    0.0000    0.0000    0.0000 S   0  0  0  0  0  0  0  0  0  0  0  0
   -7.6628    2.8724    5.1067 H   0  0  0  0  0  0  0  0  0  0  0  0
   -7.0263    2.0775    7.4293 H   0  0  0  0  0  0  0  0  0  0  0  0
   -3.0543    3.6324    6.8345 H   0  0  0  0  0  0  0  0  0  0  0  0
   -3.4726    4.3066    3.2385 H   0  0  0  0  0  0  0  0  0  0  0  0
   -3.6467    5.7321    4.2669 H   0  0  0  0  0  0  0  0  0  0  0  0
   -2.3924    4.5259    4.6451 H   0  0  0  0  0  0  0  0  0  0  0  0
   -4.8565   -0.0590    8.4424 H   0  0  0  0  0  0  0  0  0  0  0  0
   -4.6625   -0.7651    6.1731 H   0  0  0  0  0  0  0  0  0  0  0  0
   -3.2351   -1.0115    4.1757 H   0  0  0  0  0  0  0  0  0  0  0  0
   -0.0876    1.1803    6.1412 H   0  0  0  0  0  0  0  0  0  0  0  0
   -1.5192    1.3751    8.1917 H   0  0  0  0  0  0  0  0  0  0  0  0
   -2.4608   -1.6698    0.9218 H   0  0  0  0  0  0  0  0  0  0  0  0
   -4.7844   -1.3817    0.0532 H   0  0  0  0  0  0  0  0  0  0  0  0
   -6.1101    0.6316    0.6896 H   0  0  0  0  0  0  0  0  0  0  0  0
   -5.1039    2.3667    2.1698 H   0  0  0  0  0  0  0  0  0  0  0  0
   -2.7660    2.0844    3.0035 H   0  0  0  0  0  0  0  0  0  0  0  0
    1.3517    0.0293   -0.0426 H   0  0  0  0  0  0  0  0  0  0  0  0
  1  2  1  0  0  0  0
  2  7  2  0  0  0  0
  2  3  1  0  0  0  0
  3  4  2  0  0  0  0
  4  5  1  0  0  0  0
  4 32  1  0  0  0  0
  5  9  1  0  0  0  0
  6 33  1  0  0  0  0
  6  5  2  0  0  0  0
  7  6  1  0  0  0  0
  8 36  1  0  0  0  0
  8  7  1  0  0  0  0
  9 11  2  0  0  0  0
  9 10  2  0  0  0  0
 12 37  1  0  0  0  0
 12  9  1  0  0  0  0
 13 12  1  0  0  0  0
 14 38  1  0  0  0  0
 14 13  2  0  0  0  0
 15 14  1  0  0  0  0
 16 15  2  0  0  0  0
 16 17  1  0  0  0  0
 17 18  2  0  0  0  0
 18 13  1  0  0  0  0
 18 41  1  0  0  0  0
 19 20  2  0  0  0  0
 19 16  1  0  0  0  0
 21 20  1  0  0  0  0
 22 23  1  0  0  0  0
 22 21  2  0  0  0  0
 23 19  1  0  0  0  0
 24 29  1  0  0  0  0
 24 23  1  0  0  0  0
 25 24  2  0  0  0  0
 26 27  2  0  0  0  0
 26 25  1  0  0  0  0
 27 28  1  0  0  0  0
 28 45  1  0  0  0  0
 28 29  2  0  0  0  0
 29 46  1  0  0  0  0
 30 22  1  0  0  0  0
 31  3  1  0  0  0  0
 34  8  1  0  0  0  0
 35  8  1  0  0  0  0
 39 15  1  0  0  0  0
 40 17  1  0  0  0  0
 42 25  1  0  0  0  0
 43 26  1  0  0  0  0
 44 27  1  0  0  0  0
 47 30  1  0  0  0  0
M  END
