313931814.xyz
 OpenBabel08132112103D
[O-][N+](=O)c1ccc(cc1CCCS)C
 27 27  0  0  0  0  0  0  0  0999 V2000
    3.1388   -3.1990    5.8299 O   0  0  0  0  0  0  0  0  0  0  0  0
    2.7741   -2.4116    4.9713 N   0  0  0  0  0  0  0  0  0  0  0  0
    1.6043   -2.1164    4.7636 O   0  0  0  0  0  0  0  0  0  0  0  0
    3.8162   -1.7689    4.1516 C   0  0  0  0  0  0  0  0  0  0  0  0
    5.0978   -1.7216    4.7145 C   0  0  0  0  0  0  0  0  0  0  0  0
    6.1374   -1.1196    4.0215 C   0  0  0  0  0  0  0  0  0  0  0  0
    5.9188   -0.5776    2.7428 C   0  0  0  0  0  0  0  0  0  0  0  0
    4.6338   -0.6655    2.1987 C   0  0  0  0  0  0  0  0  0  0  0  0
    3.5473   -1.2499    2.8715 C   0  0  0  0  0  0  0  0  0  0  0  0
    2.2058   -1.2566    2.1805 C   0  0  0  0  0  0  0  0  0  0  0  0
    1.3804   -0.0000    2.4922 C   0  0  0  0  0  0  0  0  0  0  0  0
   -0.0000    0.0000    1.8410 C   0  0  0  0  0  0  0  0  0  0  0  0
    0.0000    0.0000    0.0000 S   0  0  0  0  0  0  0  0  0  0  0  0
    7.0457    0.0732    1.9858 C   0  0  0  0  0  0  0  0  0  0  0  0
    5.2487   -2.1625    5.6988 H   0  0  0  0  0  0  0  0  0  0  0  0
    7.1319   -1.0721    4.4718 H   0  0  0  0  0  0  0  0  0  0  0  0
    4.4550   -0.2638    1.1976 H   0  0  0  0  0  0  0  0  0  0  0  0
    1.6256   -2.1462    2.4595 H   0  0  0  0  0  0  0  0  0  0  0  0
    2.3852   -1.2971    1.0951 H   0  0  0  0  0  0  0  0  0  0  0  0
    1.9408    0.8926    2.1676 H   0  0  0  0  0  0  0  0  0  0  0  0
    1.2465    0.0713    3.5830 H   0  0  0  0  0  0  0  0  0  0  0  0
   -0.5448    0.9168    2.1120 H   0  0  0  0  0  0  0  0  0  0  0  0
   -0.6051   -0.8483    2.1953 H   0  0  0  0  0  0  0  0  0  0  0  0
    0.2650   -1.3150   -0.1693 H   0  0  0  0  0  0  0  0  0  0  0  0
    6.7244    0.4152    0.9920 H   0  0  0  0  0  0  0  0  0  0  0  0
    7.8873   -0.6260    1.8525 H   0  0  0  0  0  0  0  0  0  0  0  0
    7.4366    0.9447    2.5365 H   0  0  0  0  0  0  0  0  0  0  0  0
  2  1  2  0  0  0  0
  3  2  2  0  0  0  0
  4  5  1  0  0  0  0
  4  2  1  0  0  0  0
  5 15  1  0  0  0  0
  6 16  1  0  0  0  0
  6  5  2  0  0  0  0
  7  6  1  0  0  0  0
  8  7  2  0  0  0  0
  8  9  1  0  0  0  0
  9  4  2  0  0  0  0
 10 18  1  0  0  0  0
 10 11  1  0  0  0  0
 10  9  1  0  0  0  0
 11 21  1  0  0  0  0
 12 22  1  0  0  0  0
 12 23  1  0  0  0  0
 12 11  1  0  0  0  0
 13 12  1  0  0  0  0
 14 27  1  0  0  0  0
 14  7  1  0  0  0  0
 17  8  1  0  0  0  0
 19 10  1  0  0  0  0
 20 11  1  0  0  0  0
 24 13  1  0  0  0  0
 25 14  1  0  0  0  0
 26 14  1  0  0  0  0
M  END
