313914810.xyz
 OpenBabel08132112103D
SCCc1c(F)cc(cc1F)F
 19 19  0  0  0  0  0  0  0  0999 V2000
    0.0000    0.0000    0.0000 S   0  0  0  0  0  0  0  0  0  0  0  0
   -0.0000    0.0000    1.8327 C   0  0  0  0  0  0  0  0  0  0  0  0
    1.3929    0.0000    2.4788 C   0  0  0  0  0  0  0  0  0  0  0  0
    2.2572   -1.1524    2.0442 C   0  0  0  0  0  0  0  0  0  0  0  0
    3.2472   -1.0240    1.0650 C   0  0  0  0  0  0  0  0  0  0  0  0
    3.4634    0.1868    0.5331 F   0  0  0  0  0  0  0  0  0  0  0  0
    4.0311   -2.0858    0.6220 C   0  0  0  0  0  0  0  0  0  0  0  0
    3.7971   -3.3382    1.1827 C   0  0  0  0  0  0  0  0  0  0  0  0
    2.8223   -3.5445    2.1558 C   0  0  0  0  0  0  0  0  0  0  0  0
    2.0744   -2.4411    2.5547 C   0  0  0  0  0  0  0  0  0  0  0  0
    1.1194   -2.6176    3.4823 F   0  0  0  0  0  0  0  0  0  0  0  0
    4.5322   -4.3773    0.7746 F   0  0  0  0  0  0  0  0  0  0  0  0
    0.6715    1.1649   -0.1537 H   0  0  0  0  0  0  0  0  0  0  0  0
   -0.5427   -0.9174    2.1065 H   0  0  0  0  0  0  0  0  0  0  0  0
   -0.5897    0.8517    2.2040 H   0  0  0  0  0  0  0  0  0  0  0  0
    1.9068    0.9439    2.2461 H   0  0  0  0  0  0  0  0  0  0  0  0
    1.2592   -0.0363    3.5724 H   0  0  0  0  0  0  0  0  0  0  0  0
    4.7940   -1.9404   -0.1419 H   0  0  0  0  0  0  0  0  0  0  0  0
    2.6467   -4.5303    2.5849 H   0  0  0  0  0  0  0  0  0  0  0  0
  1  2  1  0  0  0  0
  2 14  1  0  0  0  0
  2 15  1  0  0  0  0
  2  3  1  0  0  0  0
  3 17  1  0  0  0  0
  4  3  1  0  0  0  0
  4 10  2  0  0  0  0
  5  4  1  0  0  0  0
  6  5  1  0  0  0  0
  7  5  2  0  0  0  0
  7  8  1  0  0  0  0
  8  9  2  0  0  0  0
  9 10  1  0  0  0  0
  9 19  1  0  0  0  0
 10 11  1  0  0  0  0
 12  8  1  0  0  0  0
 13  1  1  0  0  0  0
 16  3  1  0  0  0  0
 18  7  1  0  0  0  0
M  END
