313934490.xyz
 OpenBabel08132112103D
SCCCC1CCCN1C(=O)OC(C)(C)C
 39 39  0  0  1  0  0  0  0  0999 V2000
    0.0000    0.0000    0.0000 S   0  0  0  0  0  0  0  0  0  0  0  0
   -0.0000    0.0000    1.8352 C   0  0  0  0  0  0  0  0  0  0  0  0
    1.3897    0.0000    2.4635 C   0  0  0  0  0  0  0  0  0  0  0  0
    1.3315   -0.0516    3.9905 C   0  0  0  0  0  0  0  0  0  0  0  0
    2.7000   -0.0990    4.6874 C   0  0  2  0  0  0  0  0  0  0  0  0
    2.5873    0.0356    6.2157 C   0  0  0  0  0  0  0  0  0  0  0  0
    2.6179    1.5542    6.4422 C   0  0  0  0  0  0  0  0  0  0  0  0
    3.6330    2.0509    5.4038 C   0  0  0  0  0  0  0  0  0  0  0  0
    3.5640    1.0401    4.3436 N   0  0  0  0  0  0  0  0  0  0  0  0
    4.4678    0.9481    3.3264 C   0  0  0  0  0  0  0  0  0  0  0  0
    4.5441    0.0053    2.5593 O   0  0  0  0  0  0  0  0  0  0  0  0
    5.2530    2.0479    3.2994 O   0  0  0  0  0  0  0  0  0  0  0  0
    6.2789    2.2244    2.2744 C   0  0  0  0  0  0  0  0  0  0  0  0
    7.3336    1.1219    2.3914 C   0  0  0  0  0  0  0  0  0  0  0  0
    5.6313    2.2563    0.8882 C   0  0  0  0  0  0  0  0  0  0  0  0
    6.8781    3.5856    2.6231 C   0  0  0  0  0  0  0  0  0  0  0  0
    0.6672    1.1680   -0.1505 H   0  0  0  0  0  0  0  0  0  0  0  0
   -0.5507   -0.9162    2.1040 H   0  0  0  0  0  0  0  0  0  0  0  0
   -0.6018    0.8485    2.1993 H   0  0  0  0  0  0  0  0  0  0  0  0
    1.9791   -0.8430    2.0726 H   0  0  0  0  0  0  0  0  0  0  0  0
    1.9277    0.9092    2.1495 H   0  0  0  0  0  0  0  0  0  0  0  0
    0.7678   -0.9471    4.3081 H   0  0  0  0  0  0  0  0  0  0  0  0
    0.7631    0.8189    4.3648 H   0  0  0  0  0  0  0  0  0  0  0  0
    3.2151   -1.0233    4.3862 H   0  0  0  0  0  0  0  0  0  0  0  0
    3.4611   -0.4351    6.6948 H   0  0  0  0  0  0  0  0  0  0  0  0
    1.6839   -0.4462    6.6173 H   0  0  0  0  0  0  0  0  0  0  0  0
    2.9008    1.8354    7.4668 H   0  0  0  0  0  0  0  0  0  0  0  0
    1.6253    1.9894    6.2455 H   0  0  0  0  0  0  0  0  0  0  0  0
    3.3993    3.0552    5.0184 H   0  0  0  0  0  0  0  0  0  0  0  0
    4.6540    2.0954    5.8196 H   0  0  0  0  0  0  0  0  0  0  0  0
    7.7453    1.0976    3.4124 H   0  0  0  0  0  0  0  0  0  0  0  0
    8.1604    1.3238    1.6931 H   0  0  0  0  0  0  0  0  0  0  0  0
    6.9008    0.1415    2.1591 H   0  0  0  0  0  0  0  0  0  0  0  0
    4.8471    3.0286    0.8538 H   0  0  0  0  0  0  0  0  0  0  0  0
    5.1850    1.2850    0.6424 H   0  0  0  0  0  0  0  0  0  0  0  0
    6.3898    2.5038    0.1298 H   0  0  0  0  0  0  0  0  0  0  0  0
    6.1062    4.3685    2.5810 H   0  0  0  0  0  0  0  0  0  0  0  0
    7.6783    3.8427    1.9132 H   0  0  0  0  0  0  0  0  0  0  0  0
    7.3015    3.5714    3.6387 H   0  0  0  0  0  0  0  0  0  0  0  0
  1  2  1  0  0  0  0
  2 18  1  0  0  0  0
  2 19  1  0  0  0  0
  2  3  1  0  0  0  0
  3  4  1  0  0  0  0
  4 22  1  0  0  0  0
  4 23  1  0  0  0  0
  4  5  1  0  0  0  0
  5 24  1  6  0  0  0
  5  6  1  0  0  0  0
  6  7  1  0  0  0  0
  6 26  1  0  0  0  0
  6 25  1  0  0  0  0
  7 27  1  0  0  0  0
  8 30  1  0  0  0  0
  8  7  1  0  0  0  0
  9  5  1  0  0  0  0
  9  8  1  0  0  0  0
 10  9  1  0  0  0  0
 11 10  2  0  0  0  0
 12 10  1  0  0  0  0
 13 14  1  0  0  0  0
 13 16  1  0  0  0  0
 13 12  1  0  0  0  0
 14 31  1  0  0  0  0
 15 13  1  0  0  0  0
 16 39  1  0  0  0  0
 17  1  1  0  0  0  0
 20  3  1  0  0  0  0
 21  3  1  0  0  0  0
 28  7  1  0  0  0  0
 29  8  1  0  0  0  0
 32 14  1  0  0  0  0
 33 14  1  0  0  0  0
 34 15  1  0  0  0  0
 35 15  1  0  0  0  0
 36 15  1  0  0  0  0
 37 16  1  0  0  0  0
 38 16  1  0  0  0  0
M  END
