313990751.xyz
 OpenBabel08132112103D
SCCc1cccnc1C(F)(F)F
 21 21  0  0  1  0  0  0  0  0999 V2000
    0.0000    0.0000    0.0000 S   0  0  0  0  0  0  0  0  0  0  0  0
    0.0000   -0.0000    1.8413 C   0  0  0  0  0  0  0  0  0  0  0  0
    1.4331    0.0000    2.3866 C   0  0  0  0  0  0  0  0  0  0  0  0
    2.2244   -1.2349    2.0080 C   0  0  1  0  0  0  0  0  0  0  0  0
    1.7925   -2.4927    2.4513 C   0  0  0  0  0  0  0  0  0  0  0  0
    2.4902   -3.6433    2.0958 C   0  0  0  0  0  0  0  0  0  0  0  0
    3.6256   -3.5052    1.2932 C   0  0  0  0  0  0  0  0  0  0  0  0
    4.0627   -2.3217    0.8716 N   0  0  0  0  0  0  0  0  0  0  0  0
    3.3887   -1.2268    1.2154 C   0  0  0  0  0  0  0  0  0  0  0  0
    3.9811    0.0814    0.7042 C   0  0  0  0  0  0  0  0  0  0  0  0
    3.0916    0.7625   -0.0475 F   0  0  0  0  0  0  0  0  0  0  0  0
    4.3147    0.8898    1.7368 F   0  0  0  0  0  0  0  0  0  0  0  0
    5.0715   -0.1044   -0.0291 F   0  0  0  0  0  0  0  0  0  0  0  0
   -1.3350   -0.1748   -0.1320 H   0  0  0  0  0  0  0  0  0  0  0  0
   -0.5440   -0.8881    2.1969 H   0  0  0  0  0  0  0  0  0  0  0  0
   -0.5282    0.8916    2.2109 H   0  0  0  0  0  0  0  0  0  0  0  0
    1.3680    0.0460    3.4873 H   0  0  0  0  0  0  0  0  0  0  0  0
    1.9449    0.9164    2.0724 H   0  0  0  0  0  0  0  0  0  0  0  0
    0.9015   -2.5648    3.0807 H   0  0  0  0  0  0  0  0  0  0  0  0
    2.1644   -4.6292    2.4339 H   0  0  0  0  0  0  0  0  0  0  0  0
    4.2046   -4.3825    0.9845 H   0  0  0  0  0  0  0  0  0  0  0  0
  1  2  1  0  0  0  0
  2 15  1  0  0  0  0
  2 16  1  0  0  0  0
  2  3  1  0  0  0  0
  3 17  1  0  0  0  0
  4  3  1  6  0  0  0
  4  5  1  0  0  0  0
  5 19  1  0  0  0  0
  6 20  1  0  0  0  0
  6  5  2  0  0  0  0
  7  6  1  0  0  0  0
  8  9  2  0  0  0  0
  8  7  2  0  0  0  0
  9  4  1  0  0  0  0
 10  9  1  0  0  0  0
 10 12  1  0  0  0  0
 11 10  1  0  0  0  0
 13 10  1  0  0  0  0
 14  1  1  0  0  0  0
 18  3  1  0  0  0  0
 21  7  1  0  0  0  0
M  RAD  1   4   2
M  END
