31406096.xyz
 OpenBabel08132112103D
COCCn1c(S)nc2c(c1=O)cccn2
 27 28  0  0  1  0  0  0  0  0999 V2000
   -2.5230    3.5279    0.7431 C   0  0  0  0  0  0  0  0  0  0  0  0
   -2.1673    2.1745    0.8347 O   0  0  0  0  0  0  0  0  0  0  0  0
   -3.0761    1.3879    1.5549 C   0  0  0  0  0  0  0  0  0  0  0  0
   -2.5051   -0.0145    1.6848 C   0  0  0  0  0  0  0  0  0  0  0  0
   -1.2304   -0.0265    2.4085 N   0  0  0  0  0  0  0  0  0  0  0  0
    0.0000   -0.0000    1.7784 C   0  0  0  0  0  0  0  0  0  0  0  0
    0.0000    0.0000    0.0000 S   0  0  0  0  0  0  0  0  0  0  0  0
    1.1405   -0.0000    2.3861 N   0  0  0  0  0  0  0  0  0  0  0  0
    1.1656   -0.0160    3.7582 C   0  0  0  0  0  0  0  0  0  0  0  0
   -0.0361   -0.0231    4.5089 C   0  0  2  0  0  0  0  0  0  0  0  0
   -1.3260   -0.0206    3.8193 C   0  0  0  0  0  0  0  0  0  0  0  0
   -2.4165   -0.0178    4.3656 O   0  0  0  0  0  0  0  0  0  0  0  0
    0.0293   -0.0319    5.9100 C   0  0  0  0  0  0  0  0  0  0  0  0
    1.2783   -0.0362    6.5106 C   0  0  0  0  0  0  0  0  0  0  0  0
    2.4151   -0.0309    5.6765 C   0  0  0  0  0  0  0  0  0  0  0  0
    2.3739   -0.0207    4.3530 N   0  0  0  0  0  0  0  0  0  0  0  0
   -3.4869    3.6677    0.2132 H   0  0  0  0  0  0  0  0  0  0  0  0
   -1.7331    4.0431    0.1783 H   0  0  0  0  0  0  0  0  0  0  0  0
   -2.6117    3.9988    1.7427 H   0  0  0  0  0  0  0  0  0  0  0  0
   -3.2567    1.8043    2.5650 H   0  0  0  0  0  0  0  0  0  0  0  0
   -4.0594    1.3277    1.0421 H   0  0  0  0  0  0  0  0  0  0  0  0
   -3.2083   -0.6368    2.2524 H   0  0  0  0  0  0  0  0  0  0  0  0
   -2.3496   -0.4639    0.6951 H   0  0  0  0  0  0  0  0  0  0  0  0
    1.3326   -0.2230   -0.0281 H   0  0  0  0  0  0  0  0  0  0  0  0
   -0.9014   -0.0362    6.4810 H   0  0  0  0  0  0  0  0  0  0  0  0
    1.3918   -0.0440    7.5961 H   0  0  0  0  0  0  0  0  0  0  0  0
    3.4145   -0.0353    6.1295 H   0  0  0  0  0  0  0  0  0  0  0  0
  1  2  1  0  0  0  0
  1 19  1  0  0  0  0
  2  3  1  0  0  0  0
  3  4  1  0  0  0  0
  3 20  1  0  0  0  0
  4 22  1  0  0  0  0
  4  5  1  0  0  0  0
  5 11  1  0  0  0  0
  6  8  2  0  0  0  0
  6  5  1  0  0  0  0
  7  6  1  0  0  0  0
  8  9  2  0  0  0  0
  9 16  2  0  0  0  0
 10  9  1  1  0  0  0
 10 13  1  0  0  0  0
 11 12  2  0  0  0  0
 11 10  1  0  0  0  0
 13 25  1  0  0  0  0
 13 14  2  0  0  0  0
 14 26  1  0  0  0  0
 15 27  1  0  0  0  0
 15 14  1  0  0  0  0
 16 15  2  0  0  0  0
 17  1  1  0  0  0  0
 18  1  1  0  0  0  0
 21  3  1  0  0  0  0
 23  4  1  0  0  0  0
 24  7  1  0  0  0  0
M  RAD  1  10   2
M  END
