314091831.xyz
 OpenBabel08132112103D
CCCc1nnc(n1c1c(Cl)cc(cc1Cl)Br)S
 28 29  0  0  0  0  0  0  0  0999 V2000
   -3.3123   -1.2816    6.4312 C   0  0  0  0  0  0  0  0  0  0  0  0
   -2.3689   -1.3228    5.2318 C   0  0  0  0  0  0  0  0  0  0  0  0
   -1.6957    0.0349    4.9708 C   0  0  0  0  0  0  0  0  0  0  0  0
   -0.7616    0.0366    3.8105 C   0  0  0  0  0  0  0  0  0  0  0  0
    0.5437    0.0207    3.8519 N   0  0  0  0  0  0  0  0  0  0  0  0
    1.0285    0.0000    2.5614 N   0  0  0  0  0  0  0  0  0  0  0  0
   -0.0000   -0.0000    1.7570 C   0  0  0  0  0  0  0  0  0  0  0  0
   -1.1756    0.0173    2.4814 N   0  0  0  0  0  0  0  0  0  0  0  0
   -2.4883    0.0563    1.9675 C   0  0  0  0  0  0  0  0  0  0  0  0
   -3.1235   -1.1142    1.5130 C   0  0  0  0  0  0  0  0  0  0  0  0
   -2.2859   -2.6302    1.6206 Cl  0  0  0  0  0  0  0  0  0  0  0  0
   -4.4158   -1.0830    0.9869 C   0  0  0  0  0  0  0  0  0  0  0  0
   -5.0851    0.1408    0.9228 C   0  0  0  0  0  0  0  0  0  0  0  0
   -4.4904    1.3237    1.3668 C   0  0  0  0  0  0  0  0  0  0  0  0
   -3.1948    1.2700    1.8827 C   0  0  0  0  0  0  0  0  0  0  0  0
   -2.4361    2.7317    2.4324 Cl  0  0  0  0  0  0  0  0  0  0  0  0
   -6.8458    0.1979    0.2153 Br  0  0  0  0  0  0  0  0  0  0  0  0
    0.0000    0.0000    0.0000 S   0  0  0  0  0  0  0  0  0  0  0  0
   -3.7785   -2.2629    6.6096 H   0  0  0  0  0  0  0  0  0  0  0  0
   -4.1219   -0.5489    6.2763 H   0  0  0  0  0  0  0  0  0  0  0  0
   -2.7767   -0.9923    7.3503 H   0  0  0  0  0  0  0  0  0  0  0  0
   -1.5825   -2.0797    5.3879 H   0  0  0  0  0  0  0  0  0  0  0  0
   -2.9209   -1.6430    4.3333 H   0  0  0  0  0  0  0  0  0  0  0  0
   -2.4653    0.8123    4.8244 H   0  0  0  0  0  0  0  0  0  0  0  0
   -1.1022    0.3322    5.8482 H   0  0  0  0  0  0  0  0  0  0  0  0
   -4.8851   -2.0027    0.6413 H   0  0  0  0  0  0  0  0  0  0  0  0
   -5.0163    2.2756    1.3127 H   0  0  0  0  0  0  0  0  0  0  0  0
    1.3509   -0.0008   -0.0535 H   0  0  0  0  0  0  0  0  0  0  0  0
  1 19  1  0  0  0  0
  1 21  1  0  0  0  0
  2 22  1  0  0  0  0
  2  1  1  0  0  0  0
  3  2  1  0  0  0  0
  3 25  1  0  0  0  0
  4  5  2  0  0  0  0
  4  3  1  0  0  0  0
  6  5  1  0  0  0  0
  7  8  1  0  0  0  0
  7  6  2  0  0  0  0
  8  4  1  0  0  0  0
  9  8  1  0  0  0  0
 10 11  1  0  0  0  0
 10  9  2  0  0  0  0
 12 10  1  0  0  0  0
 13 12  2  0  0  0  0
 13 14  1  0  0  0  0
 14 15  2  0  0  0  0
 15  9  1  0  0  0  0
 15 16  1  0  0  0  0
 17 13  1  0  0  0  0
 18  7  1  0  0  0  0
 20  1  1  0  0  0  0
 23  2  1  0  0  0  0
 24  3  1  0  0  0  0
 26 12  1  0  0  0  0
 27 14  1  0  0  0  0
 28 18  1  0  0  0  0
M  END
