31404944.xyz
 OpenBabel08132112103D
Oc1nnc(n1CC1CCCO1)S
 24 25  0  0  1  0  0  0  0  0999 V2000
    1.6050    0.0197    4.8058 O   0  0  0  0  0  0  0  0  0  0  0  0
    0.7331   -0.0038    3.7910 C   0  0  0  0  0  0  0  0  0  0  0  0
   -0.5669   -0.0347    3.8600 N   0  0  0  0  0  0  0  0  0  0  0  0
   -1.0367   -0.0238    2.5570 N   0  0  0  0  0  0  0  0  0  0  0  0
    0.0000   -0.0000    1.7634 C   0  0  0  0  0  0  0  0  0  0  0  0
    1.1763   -0.0000    2.4996 N   0  0  0  0  0  0  0  0  0  0  0  0
    2.5439    0.0471    2.0286 C   0  0  0  0  0  0  0  0  0  0  0  0
    2.9886    1.4722    1.6811 C   0  0  1  0  0  0  0  0  0  0  0  0
    4.3186    1.5013    0.9083 C   0  0  0  0  0  0  0  0  0  0  0  0
    3.8489    1.5466   -0.5526 C   0  0  0  0  0  0  0  0  0  0  0  0
    2.5859    2.3979   -0.4378 C   0  0  0  0  0  0  0  0  0  0  0  0
    2.0148    2.0596    0.8224 O   0  0  0  0  0  0  0  0  0  0  0  0
    0.0000    0.0000    0.0000 S   0  0  0  0  0  0  0  0  0  0  0  0
    1.0839    0.0016    5.6238 H   0  0  0  0  0  0  0  0  0  0  0  0
    2.6137   -0.5957    1.1378 H   0  0  0  0  0  0  0  0  0  0  0  0
    3.1888   -0.3697    2.8154 H   0  0  0  0  0  0  0  0  0  0  0  0
    3.0359    2.0613    2.6135 H   0  0  0  0  0  0  0  0  0  0  0  0
    4.8823    2.4129    1.1595 H   0  0  0  0  0  0  0  0  0  0  0  0
    4.9612    0.6379    1.1377 H   0  0  0  0  0  0  0  0  0  0  0  0
    4.5970    1.9720   -1.2371 H   0  0  0  0  0  0  0  0  0  0  0  0
    3.5944    0.5368   -0.9124 H   0  0  0  0  0  0  0  0  0  0  0  0
    2.8288    3.4778   -0.4642 H   0  0  0  0  0  0  0  0  0  0  0  0
    1.8400    2.1931   -1.2204 H   0  0  0  0  0  0  0  0  0  0  0  0
   -1.0081   -0.8987   -0.0941 H   0  0  0  0  0  0  0  0  0  0  0  0
  1 14  1  0  0  0  0
  2  3  2  0  0  0  0
  2  1  1  0  0  0  0
  4  3  1  0  0  0  0
  5  6  1  0  0  0  0
  5  4  2  0  0  0  0
  6  2  1  0  0  0  0
  7  6  1  0  0  0  0
  7 16  1  0  0  0  0
  8  7  1  0  0  0  0
  8 17  1  1  0  0  0
  9 19  1  0  0  0  0
  9 18  1  0  0  0  0
  9  8  1  0  0  0  0
 10 11  1  0  0  0  0
 10  9  1  0  0  0  0
 11 12  1  0  0  0  0
 12  8  1  0  0  0  0
 13  5  1  0  0  0  0
 15  7  1  0  0  0  0
 20 10  1  0  0  0  0
 21 10  1  0  0  0  0
 22 11  1  0  0  0  0
 23 11  1  0  0  0  0
 24 13  1  0  0  0  0
M  END
