314146701.xyz
 OpenBabel08132112103D
CCCn1c(S)nnc1N(c1cccc(c1)F)C
 33 34  0  0  0  0  0  0  0  0999 V2000
    3.0658   -2.3787    2.0814 C   0  0  0  0  0  0  0  0  0  0  0  0
    3.0730   -1.0749    1.2897 C   0  0  0  0  0  0  0  0  0  0  0  0
    2.5300    0.1361    2.0532 C   0  0  0  0  0  0  0  0  0  0  0  0
    1.1511   -0.0000    2.5090 N   0  0  0  0  0  0  0  0  0  0  0  0
   -0.0000   -0.0000    1.7615 C   0  0  0  0  0  0  0  0  0  0  0  0
    0.0000    0.0000    0.0000 S   0  0  0  0  0  0  0  0  0  0  0  0
   -1.0622    0.0309    2.5319 N   0  0  0  0  0  0  0  0  0  0  0  0
   -0.6215    0.0440    3.8346 N   0  0  0  0  0  0  0  0  0  0  0  0
    0.6878    0.0297    3.8152 C   0  0  0  0  0  0  0  0  0  0  0  0
    1.5529    0.0810    4.9050 N   0  0  0  0  0  0  0  0  0  0  0  0
    2.1486   -1.1526    5.3060 C   0  0  0  0  0  0  0  0  0  0  0  0
    1.4771   -2.3728    5.1405 C   0  0  0  0  0  0  0  0  0  0  0  0
    2.0988   -3.5664    5.5133 C   0  0  0  0  0  0  0  0  0  0  0  0
    3.3799   -3.5660    6.0690 C   0  0  0  0  0  0  0  0  0  0  0  0
    4.0220   -2.3408    6.2415 C   0  0  0  0  0  0  0  0  0  0  0  0
    3.4354   -1.1378    5.8648 C   0  0  0  0  0  0  0  0  0  0  0  0
    5.2540   -2.3188    6.7711 F   0  0  0  0  0  0  0  0  0  0  0  0
    1.1506    0.9920    5.9815 C   0  0  0  0  0  0  0  0  0  0  0  0
    2.0424   -2.6701    2.3596 H   0  0  0  0  0  0  0  0  0  0  0  0
    3.6466   -2.2926    3.0128 H   0  0  0  0  0  0  0  0  0  0  0  0
    3.4961   -3.1984    1.4860 H   0  0  0  0  0  0  0  0  0  0  0  0
    4.1016   -0.8195    0.9827 H   0  0  0  0  0  0  0  0  0  0  0  0
    2.5026   -1.2024    0.3545 H   0  0  0  0  0  0  0  0  0  0  0  0
    2.5884    1.0360    1.4187 H   0  0  0  0  0  0  0  0  0  0  0  0
    3.1246    0.3263    2.9581 H   0  0  0  0  0  0  0  0  0  0  0  0
   -1.3410    0.1681   -0.0502 H   0  0  0  0  0  0  0  0  0  0  0  0
    0.4693   -2.3742    4.7234 H   0  0  0  0  0  0  0  0  0  0  0  0
    1.5723   -4.5137    5.3772 H   0  0  0  0  0  0  0  0  0  0  0  0
    3.8827   -4.4855    6.3717 H   0  0  0  0  0  0  0  0  0  0  0  0
    3.9857   -0.2045    5.9904 H   0  0  0  0  0  0  0  0  0  0  0  0
    0.2627    0.6234    6.5237 H   0  0  0  0  0  0  0  0  0  0  0  0
    0.9146    1.9766    5.5552 H   0  0  0  0  0  0  0  0  0  0  0  0
    1.9815    1.1038    6.6910 H   0  0  0  0  0  0  0  0  0  0  0  0
  1 19  1  0  0  0  0
  1 20  1  0  0  0  0
  2  3  1  0  0  0  0
  2  1  1  0  0  0  0
  3  4  1  0  0  0  0
  3 25  1  0  0  0  0
  4  9  1  0  0  0  0
  5  4  1  0  0  0  0
  5  7  2  0  0  0  0
  6  5  1  0  0  0  0
  7  8  1  0  0  0  0
  9  8  2  0  0  0  0
  9 10  1  0  0  0  0
 10 11  1  0  0  0  0
 10 18  1  0  0  0  0
 11 16  1  0  0  0  0
 12 11  2  0  0  0  0
 12 13  1  0  0  0  0
 13 14  2  0  0  0  0
 14 15  1  0  0  0  0
 14 29  1  0  0  0  0
 15 17  1  0  0  0  0
 16 30  1  0  0  0  0
 16 15  2  0  0  0  0
 18 31  1  0  0  0  0
 18 33  1  0  0  0  0
 21  1  1  0  0  0  0
 22  2  1  0  0  0  0
 23  2  1  0  0  0  0
 24  3  1  0  0  0  0
 26  6  1  0  0  0  0
 27 12  1  0  0  0  0
 28 13  1  0  0  0  0
 32 18  1  0  0  0  0
M  END
