314168518.xyz
 OpenBabel08132112103D
Cc1cccc(n1)Cn1c(S)nc2c1cccc2
 31 33  0  0  0  0  0  0  0  0999 V2000
    6.3763   -2.7032    0.7275 C   0  0  0  0  0  0  0  0  0  0  0  0
    4.9475   -2.7167    1.2013 C   0  0  0  0  0  0  0  0  0  0  0  0
    4.2631   -3.9150    1.4605 C   0  0  0  0  0  0  0  0  0  0  0  0
    2.9406   -3.8565    1.8973 C   0  0  0  0  0  0  0  0  0  0  0  0
    2.3324   -2.6118    2.0639 C   0  0  0  0  0  0  0  0  0  0  0  0
    3.0916   -1.4714    1.7812 C   0  0  0  0  0  0  0  0  0  0  0  0
    4.3582   -1.5255    1.3650 N   0  0  0  0  0  0  0  0  0  0  0  0
    2.5315   -0.0659    1.9141 C   0  0  0  0  0  0  0  0  0  0  0  0
    1.1963   -0.0000    2.4587 N   0  0  0  0  0  0  0  0  0  0  0  0
   -0.0000    0.0000    1.7629 C   0  0  0  0  0  0  0  0  0  0  0  0
    0.0000    0.0000    0.0000 S   0  0  0  0  0  0  0  0  0  0  0  0
   -1.0594   -0.0115    2.5297 N   0  0  0  0  0  0  0  0  0  0  0  0
   -0.5664   -0.0325    3.8269 C   0  0  0  0  0  0  0  0  0  0  0  0
    0.8529   -0.0377    3.8059 C   0  0  0  0  0  0  0  0  0  0  0  0
    1.6239   -0.0800    4.9686 C   0  0  0  0  0  0  0  0  0  0  0  0
    0.9304   -0.1030    6.1810 C   0  0  0  0  0  0  0  0  0  0  0  0
   -0.4785   -0.0885    6.2221 C   0  0  0  0  0  0  0  0  0  0  0  0
   -1.2416   -0.0542    5.0547 C   0  0  0  0  0  0  0  0  0  0  0  0
    7.0035   -2.1328    1.4309 H   0  0  0  0  0  0  0  0  0  0  0  0
    6.4474   -2.1936   -0.2466 H   0  0  0  0  0  0  0  0  0  0  0  0
    6.7873   -3.7174    0.6275 H   0  0  0  0  0  0  0  0  0  0  0  0
    4.7654   -4.8744    1.3213 H   0  0  0  0  0  0  0  0  0  0  0  0
    2.3855   -4.7738    2.1077 H   0  0  0  0  0  0  0  0  0  0  0  0
    1.3010   -2.5272    2.4064 H   0  0  0  0  0  0  0  0  0  0  0  0
    3.2086    0.5274    2.5477 H   0  0  0  0  0  0  0  0  0  0  0  0
    2.5400    0.4193    0.9252 H   0  0  0  0  0  0  0  0  0  0  0  0
   -1.3460    0.0984   -0.0567 H   0  0  0  0  0  0  0  0  0  0  0  0
    2.7149   -0.1015    4.9379 H   0  0  0  0  0  0  0  0  0  0  0  0
    1.4927   -0.1361    7.1170 H   0  0  0  0  0  0  0  0  0  0  0  0
   -0.9811   -0.1080    7.1919 H   0  0  0  0  0  0  0  0  0  0  0  0
   -2.3327   -0.0468    5.0810 H   0  0  0  0  0  0  0  0  0  0  0  0
  1  2  1  0  0  0  0
  1 19  1  0  0  0  0
  2  7  2  0  0  0  0
  2  3  1  0  0  0  0
  3  4  2  0  0  0  0
  4  5  1  0  0  0  0
  4 23  1  0  0  0  0
  5 24  1  0  0  0  0
  6  8  1  0  0  0  0
  6  5  1  0  0  0  0
  7  6  2  0  0  0  0
  8  9  1  0  0  0  0
  8 25  1  0  0  0  0
  9 14  1  0  0  0  0
 10  9  1  0  0  0  0
 10 12  2  0  0  0  0
 11 10  1  0  0  0  0
 12 13  2  0  0  0  0
 13 18  1  0  0  0  0
 14 13  1  0  0  0  0
 14 15  2  0  0  0  0
 15 16  1  0  0  0  0
 16 17  1  0  0  0  0
 16 29  1  0  0  0  0
 17 30  1  0  0  0  0
 18 31  1  0  0  0  0
 18 17  2  0  0  0  0
 20  1  1  0  0  0  0
 21  1  1  0  0  0  0
 22  3  1  0  0  0  0
 26  8  1  0  0  0  0
 27 11  1  0  0  0  0
 28 15  1  0  0  0  0
M  RAD  2   5   2  16   2
M  END
