314278051.xyz
 OpenBabel08132112103D
SCCC(CCSc1nncn1C)C
 31 31  0  0  1  0  0  0  0  0999 V2000
    0.0000    0.0000    0.0000 S   0  0  0  0  0  0  0  0  0  0  0  0
    0.0000    0.0000    1.8469 C   0  0  0  0  0  0  0  0  0  0  0  0
    1.4144    0.0000    2.4363 C   0  0  0  0  0  0  0  0  0  0  0  0
    2.1219    1.3619    2.5543 C   0  0  1  0  0  0  0  0  0  0  0  0
    3.4007    1.1841    3.3932 C   0  0  0  0  0  0  0  0  0  0  0  0
    4.0809    2.4997    3.7561 C   0  0  0  0  0  0  0  0  0  0  0  0
    5.5375    2.2995    4.8526 S   0  0  0  0  0  0  0  0  0  0  0  0
    4.6984    1.9807    6.3609 C   0  0  0  0  0  0  0  0  0  0  0  0
    3.4006    1.9832    6.5772 N   0  0  0  0  0  0  0  0  0  0  0  0
    3.2043    1.6905    7.9068 N   0  0  0  0  0  0  0  0  0  0  0  0
    4.3791    1.5212    8.4510 C   0  0  0  0  0  0  0  0  0  0  0  0
    5.3767    1.6891    7.5177 N   0  0  0  0  0  0  0  0  0  0  0  0
    6.8109    1.5955    7.6940 C   0  0  0  0  0  0  0  0  0  0  0  0
    2.4072    2.0184    1.1993 C   0  0  0  0  0  0  0  0  0  0  0  0
   -1.3237   -0.2380   -0.1479 H   0  0  0  0  0  0  0  0  0  0  0  0
   -0.5271   -0.9082    2.1719 H   0  0  0  0  0  0  0  0  0  0  0  0
   -0.5677    0.8694    2.2152 H   0  0  0  0  0  0  0  0  0  0  0  0
    1.3346   -0.4196    3.4533 H   0  0  0  0  0  0  0  0  0  0  0  0
    2.0495   -0.7041    1.8686 H   0  0  0  0  0  0  0  0  0  0  0  0
    1.4474    2.0279    3.1254 H   0  0  0  0  0  0  0  0  0  0  0  0
    4.1132    0.5374    2.8515 H   0  0  0  0  0  0  0  0  0  0  0  0
    3.1383    0.6703    4.3295 H   0  0  0  0  0  0  0  0  0  0  0  0
    4.4900    3.0193    2.8782 H   0  0  0  0  0  0  0  0  0  0  0  0
    3.3838    3.1761    4.2706 H   0  0  0  0  0  0  0  0  0  0  0  0
    4.5781    1.2793    9.4943 H   0  0  0  0  0  0  0  0  0  0  0  0
    7.2362    0.8567    6.9974 H   0  0  0  0  0  0  0  0  0  0  0  0
    7.0264    1.2793    8.7229 H   0  0  0  0  0  0  0  0  0  0  0  0
    7.2927    2.5687    7.5113 H   0  0  0  0  0  0  0  0  0  0  0  0
    1.4871    2.1726    0.6187 H   0  0  0  0  0  0  0  0  0  0  0  0
    3.0794    1.3869    0.5933 H   0  0  0  0  0  0  0  0  0  0  0  0
    2.8886    3.0013    1.3199 H   0  0  0  0  0  0  0  0  0  0  0  0
  1  2  1  0  0  0  0
  2 16  1  0  0  0  0
  2 17  1  0  0  0  0
  2  3  1  0  0  0  0
  3  4  1  0  0  0  0
  3 18  1  0  0  0  0
  4 20  1  1  0  0  0
  4  5  1  0  0  0  0
  5  6  1  0  0  0  0
  5 22  1  0  0  0  0
  6 24  1  0  0  0  0
  6  7  1  0  0  0  0
  7  8  1  0  0  0  0
  8  9  2  0  0  0  0
  8 12  1  0  0  0  0
  9 10  1  0  0  0  0
 10 11  2  0  0  0  0
 11 25  1  0  0  0  0
 12 13  1  0  0  0  0
 12 11  1  0  0  0  0
 13 27  1  0  0  0  0
 14 31  1  0  0  0  0
 14  4  1  0  0  0  0
 15  1  1  0  0  0  0
 19  3  1  0  0  0  0
 21  5  1  0  0  0  0
 23  6  1  0  0  0  0
 26 13  1  0  0  0  0
 28 13  1  0  0  0  0
 29 14  1  0  0  0  0
 30 14  1  0  0  0  0
M  END
