314266562.xyz
 OpenBabel08132112103D
CCCC1CCCCN1CC1(CS)CCC1
 43 44  0  0  1  0  0  0  0  0999 V2000
    6.6282   -2.3053    5.0745 C   0  0  0  0  0  0  0  0  0  0  0  0
    5.1602   -2.3483    5.4969 C   0  0  0  0  0  0  0  0  0  0  0  0
    4.3968   -1.0768    5.1238 C   0  0  0  0  0  0  0  0  0  0  0  0
    2.8955   -1.1133    5.4398 C   0  0  1  0  0  0  0  0  0  0  0  0
    2.6202   -1.3314    6.9498 C   0  0  0  0  0  0  0  0  0  0  0  0
    1.2327   -0.8129    7.3344 C   0  0  0  0  0  0  0  0  0  0  0  0
    1.1366    0.7080    7.1006 C   0  0  0  0  0  0  0  0  0  0  0  0
    2.0779    1.1235    5.9475 C   0  0  0  0  0  0  0  0  0  0  0  0
    2.2196    0.0919    4.9311 N   0  0  0  0  0  0  0  0  0  0  0  0
    1.0684   -0.0951    4.0651 C   0  0  0  0  0  0  0  0  0  0  0  0
    1.3556   -0.0000    2.5517 C   0  0  0  0  0  0  0  0  0  0  0  0
    0.0000   -0.0000    1.8363 C   0  0  0  0  0  0  0  0  0  0  0  0
    0.0000    0.0000    0.0000 S   0  0  0  0  0  0  0  0  0  0  0  0
    2.3767   -1.0255    1.9724 C   0  0  0  0  0  0  0  0  0  0  0  0
    3.2078    0.1396    1.3823 C   0  0  0  0  0  0  0  0  0  0  0  0
    2.3142    1.1535    2.1375 C   0  0  0  0  0  0  0  0  0  0  0  0
    6.7247   -2.1759    3.9837 H   0  0  0  0  0  0  0  0  0  0  0  0
    7.1543   -1.4620    5.5522 H   0  0  0  0  0  0  0  0  0  0  0  0
    7.1595   -3.2299    5.3505 H   0  0  0  0  0  0  0  0  0  0  0  0
    5.0987   -2.5202    6.5851 H   0  0  0  0  0  0  0  0  0  0  0  0
    4.6653   -3.2176    5.0257 H   0  0  0  0  0  0  0  0  0  0  0  0
    4.8456   -0.2085    5.6405 H   0  0  0  0  0  0  0  0  0  0  0  0
    4.5161   -0.8787    4.0463 H   0  0  0  0  0  0  0  0  0  0  0  0
    2.4592   -1.9715    4.9007 H   0  0  0  0  0  0  0  0  0  0  0  0
    2.7214   -2.3997    7.1943 H   0  0  0  0  0  0  0  0  0  0  0  0
    3.3859   -0.8065    7.5492 H   0  0  0  0  0  0  0  0  0  0  0  0
    0.4782   -1.3338    6.7202 H   0  0  0  0  0  0  0  0  0  0  0  0
    0.9989   -1.0618    8.3814 H   0  0  0  0  0  0  0  0  0  0  0  0
    1.4157    1.2602    8.0146 H   0  0  0  0  0  0  0  0  0  0  0  0
    0.0955    0.9898    6.8746 H   0  0  0  0  0  0  0  0  0  0  0  0
    1.7403    2.0587    5.4747 H   0  0  0  0  0  0  0  0  0  0  0  0
    3.0813    1.3384    6.3510 H   0  0  0  0  0  0  0  0  0  0  0  0
    0.5684   -1.0664    4.2578 H   0  0  0  0  0  0  0  0  0  0  0  0
    0.3191    0.6784    4.3081 H   0  0  0  0  0  0  0  0  0  0  0  0
   -0.5529   -0.9187    2.0942 H   0  0  0  0  0  0  0  0  0  0  0  0
   -0.6121    0.8480    2.1828 H   0  0  0  0  0  0  0  0  0  0  0  0
    0.4782    1.2539   -0.1663 H   0  0  0  0  0  0  0  0  0  0  0  0
    2.9060   -1.5961    2.7455 H   0  0  0  0  0  0  0  0  0  0  0  0
    1.9593   -1.7290    1.2375 H   0  0  0  0  0  0  0  0  0  0  0  0
    3.1193    0.2106    0.2889 H   0  0  0  0  0  0  0  0  0  0  0  0
    4.2740    0.1542    1.6549 H   0  0  0  0  0  0  0  0  0  0  0  0
    2.8145    1.5835    3.0155 H   0  0  0  0  0  0  0  0  0  0  0  0
    1.8714    1.9667    1.5405 H   0  0  0  0  0  0  0  0  0  0  0  0
  1 19  1  0  0  0  0
  1  2  1  0  0  0  0
  1 18  1  0  0  0  0
  2 20  1  0  0  0  0
  3  4  1  0  0  0  0
  3  2  1  0  0  0  0
  3 22  1  0  0  0  0
  4 24  1  6  0  0  0
  4  5  1  0  0  0  0
  5 25  1  0  0  0  0
  5  6  1  0  0  0  0
  5 26  1  0  0  0  0
  6 28  1  0  0  0  0
  7  6  1  0  0  0  0
  7 29  1  0  0  0  0
  8 32  1  0  0  0  0
  8  7  1  0  0  0  0
  9  4  1  0  0  0  0
  9  8  1  0  0  0  0
 10 33  1  0  0  0  0
 10 34  1  0  0  0  0
 10  9  1  0  0  0  0
 11 10  1  0  0  0  0
 12 35  1  0  0  0  0
 12 36  1  0  0  0  0
 12 11  1  0  0  0  0
 13 12  1  0  0  0  0
 14 11  1  0  0  0  0
 14 38  1  0  0  0  0
 15 41  1  0  0  0  0
 15 14  1  0  0  0  0
 15 16  1  0  0  0  0
 16 11  1  0  0  0  0
 16 42  1  0  0  0  0
 17  1  1  0  0  0  0
 21  2  1  0  0  0  0
 23  3  1  0  0  0  0
 27  6  1  0  0  0  0
 30  7  1  0  0  0  0
 31  8  1  0  0  0  0
 37 13  1  0  0  0  0
 39 14  1  0  0  0  0
 40 15  1  0  0  0  0
 43 16  1  0  0  0  0
M  END
