314272175.xyz
 OpenBabel08132112103D
CC1(CCCC1)n1c(S)ncc1c1ccccc1
 36 38  0  0  1  0  0  0  0  0999 V2000
   -3.5436    0.2124    3.2122 C   0  0  0  0  0  0  0  0  0  0  0  0
   -2.5295    0.0540    2.0760 C   0  0  0  0  0  0  0  0  0  0  0  0
   -2.7307    1.2583    1.0882 C   0  0  0  0  0  0  0  0  0  0  0  0
   -3.4296    0.6835   -0.1648 C   0  0  0  0  0  0  0  0  0  0  0  0
   -3.9518   -0.7044    0.2486 C   0  0  0  0  0  0  0  0  0  0  0  0
   -2.8955   -1.2015    1.2395 C   0  0  0  0  0  0  0  0  0  0  0  0
   -1.1281   -0.0264    2.5759 N   0  0  0  0  0  0  0  0  0  0  0  0
    0.0000    0.0000    1.7757 C   0  0  0  0  0  0  0  0  0  0  0  0
    0.0000    0.0000    0.0000 S   0  0  0  0  0  0  0  0  0  0  0  0
    1.1182    0.0000    2.4636 N   0  0  0  0  0  0  0  0  0  0  0  0
    0.7363   -0.0319    3.7773 C   0  0  0  0  0  0  0  0  0  0  0  0
   -0.6353   -0.0596    3.8957 C   0  0  2  0  0  0  0  0  0  0  0  0
   -1.3883   -0.2060    5.1614 C   0  0  0  0  0  0  0  0  0  0  0  0
   -1.8913   -1.4574    5.5578 C   0  0  0  0  0  0  0  0  0  0  0  0
   -2.5463   -1.6079    6.7803 C   0  0  0  0  0  0  0  0  0  0  0  0
   -2.6964   -0.5108    7.6354 C   0  0  0  0  0  0  0  0  0  0  0  0
   -2.1802    0.7326    7.2631 C   0  0  0  0  0  0  0  0  0  0  0  0
   -1.5291    0.8826    6.0355 C   0  0  0  0  0  0  0  0  0  0  0  0
   -3.5823   -0.6595    3.8728 H   0  0  0  0  0  0  0  0  0  0  0  0
   -4.5377    0.3382    2.7612 H   0  0  0  0  0  0  0  0  0  0  0  0
   -3.3380    1.1023    3.8215 H   0  0  0  0  0  0  0  0  0  0  0  0
   -1.7800    1.7421    0.8339 H   0  0  0  0  0  0  0  0  0  0  0  0
   -3.3462    2.0261    1.5791 H   0  0  0  0  0  0  0  0  0  0  0  0
   -4.2260    1.3412   -0.5439 H   0  0  0  0  0  0  0  0  0  0  0  0
   -2.6947    0.5688   -0.9766 H   0  0  0  0  0  0  0  0  0  0  0  0
   -4.0823   -1.3833   -0.6076 H   0  0  0  0  0  0  0  0  0  0  0  0
   -4.9346   -0.6196    0.7414 H   0  0  0  0  0  0  0  0  0  0  0  0
   -2.0121   -1.5570    0.6896 H   0  0  0  0  0  0  0  0  0  0  0  0
   -3.2360   -2.0276    1.8824 H   0  0  0  0  0  0  0  0  0  0  0  0
    1.3509   -0.0153   -0.0269 H   0  0  0  0  0  0  0  0  0  0  0  0
    1.4584   -0.0614    4.5921 H   0  0  0  0  0  0  0  0  0  0  0  0
   -1.7619   -2.3154    4.8937 H   0  0  0  0  0  0  0  0  0  0  0  0
   -2.9337   -2.5869    7.0728 H   0  0  0  0  0  0  0  0  0  0  0  0
   -3.2073   -0.6286    8.5940 H   0  0  0  0  0  0  0  0  0  0  0  0
   -2.2845    1.5911    7.9309 H   0  0  0  0  0  0  0  0  0  0  0  0
   -1.1267    1.8539    5.7393 H   0  0  0  0  0  0  0  0  0  0  0  0
  1 21  1  0  0  0  0
  1 19  1  0  0  0  0
  2  7  1  0  0  0  0
  2  1  1  0  0  0  0
  3 23  1  0  0  0  0
  3  2  1  0  0  0  0
  4  5  1  0  0  0  0
  4  3  1  0  0  0  0
  5 27  1  0  0  0  0
  5  6  1  0  0  0  0
  6 29  1  0  0  0  0
  6  2  1  0  0  0  0
  7 12  1  0  0  0  0
  8 10  2  0  0  0  0
  8  7  1  0  0  0  0
  9  8  1  0  0  0  0
 10 11  2  0  0  0  0
 11 12  1  0  0  0  0
 11 31  1  0  0  0  0
 12 13  1  6  0  0  0
 13 14  2  0  0  0  0
 13 18  1  0  0  0  0
 14 15  1  0  0  0  0
 15 33  1  0  0  0  0
 15 16  2  0  0  0  0
 16 34  1  0  0  0  0
 17 16  1  0  0  0  0
 17 35  1  0  0  0  0
 18 17  2  0  0  0  0
 20  1  1  0  0  0  0
 22  3  1  0  0  0  0
 24  4  1  0  0  0  0
 25  4  1  0  0  0  0
 26  5  1  0  0  0  0
 28  6  1  0  0  0  0
 30  9  1  0  0  0  0
 32 14  1  0  0  0  0
 36 18  1  0  0  0  0
M  RAD  1  12   2
M  END
