314253377.xyz
 OpenBabel08132112103D
SCCC(CCN1CC(CC1=O)C)C
 35 35  0  0  1  0  0  0  0  0999 V2000
    0.0000    0.0000    0.0000 S   0  0  0  0  0  0  0  0  0  0  0  0
    0.0000   -0.0000    1.8430 C   0  0  0  0  0  0  0  0  0  0  0  0
    1.4310    0.0000    2.3784 C   0  0  0  0  0  0  0  0  0  0  0  0
    2.3356    1.1603    1.9242 C   0  0  1  0  0  0  0  0  0  0  0  0
    1.6936    2.5256    2.2089 C   0  0  0  0  0  0  0  0  0  0  0  0
    2.5359    3.7238    1.7587 C   0  0  0  0  0  0  0  0  0  0  0  0
    1.8482    4.9877    1.9068 N   0  0  0  0  0  0  0  0  0  0  0  0
    1.5185    5.5708    3.1933 C   0  0  0  0  0  0  0  0  0  0  0  0
    1.0937    7.0117    2.8402 C   0  0  1  0  0  0  0  0  0  0  0  0
    0.5473    6.8605    1.4134 C   0  0  0  0  0  0  0  0  0  0  0  0
    1.3002    5.6609    0.8413 C   0  0  0  0  0  0  0  0  0  0  0  0
    1.3912    5.3342   -0.3251 O   0  0  0  0  0  0  0  0  0  0  0  0
    0.1415    7.6440    3.8467 C   0  0  0  0  0  0  0  0  0  0  0  0
    3.7187    1.0107    2.5679 C   0  0  0  0  0  0  0  0  0  0  0  0
   -1.3440   -0.0134   -0.1496 H   0  0  0  0  0  0  0  0  0  0  0  0
   -0.5529    0.8806    2.2020 H   0  0  0  0  0  0  0  0  0  0  0  0
   -0.5259   -0.8972    2.2012 H   0  0  0  0  0  0  0  0  0  0  0  0
    1.3728    0.0051    3.4826 H   0  0  0  0  0  0  0  0  0  0  0  0
    1.9155   -0.9516    2.1007 H   0  0  0  0  0  0  0  0  0  0  0  0
    2.4614    1.0816    0.8290 H   0  0  0  0  0  0  0  0  0  0  0  0
    1.4760    2.6050    3.2906 H   0  0  0  0  0  0  0  0  0  0  0  0
    0.7298    2.5897    1.6798 H   0  0  0  0  0  0  0  0  0  0  0  0
    3.4848    3.7704    2.3198 H   0  0  0  0  0  0  0  0  0  0  0  0
    2.7778    3.6272    0.6895 H   0  0  0  0  0  0  0  0  0  0  0  0
    0.6903    5.0255    3.6893 H   0  0  0  0  0  0  0  0  0  0  0  0
    2.3849    5.5392    3.8761 H   0  0  0  0  0  0  0  0  0  0  0  0
    2.0139    7.6190    2.7852 H   0  0  0  0  0  0  0  0  0  0  0  0
    0.6755    7.7442    0.7732 H   0  0  0  0  0  0  0  0  0  0  0  0
   -0.5292    6.6101    1.4183 H   0  0  0  0  0  0  0  0  0  0  0  0
    0.5894    7.6847    4.8531 H   0  0  0  0  0  0  0  0  0  0  0  0
   -0.1188    8.6736    3.5550 H   0  0  0  0  0  0  0  0  0  0  0  0
   -0.7964    7.0682    3.9182 H   0  0  0  0  0  0  0  0  0  0  0  0
    4.1261    0.0023    2.3927 H   0  0  0  0  0  0  0  0  0  0  0  0
    4.4454    1.7314    2.1645 H   0  0  0  0  0  0  0  0  0  0  0  0
    3.6640    1.1621    3.6600 H   0  0  0  0  0  0  0  0  0  0  0  0
  1  2  1  0  0  0  0
  2 17  1  0  0  0  0
  2 16  1  0  0  0  0
  2  3  1  0  0  0  0
  3 18  1  0  0  0  0
  4 20  1  6  0  0  0
  4  5  1  0  0  0  0
  4  3  1  0  0  0  0
  4 14  1  0  0  0  0
  5 21  1  0  0  0  0
  6  7  1  0  0  0  0
  6  5  1  0  0  0  0
  6 23  1  0  0  0  0
  7  8  1  0  0  0  0
  8 25  1  0  0  0  0
  8 26  1  0  0  0  0
  9 27  1  6  0  0  0
  9  8  1  0  0  0  0
  9 13  1  0  0  0  0
 10 29  1  0  0  0  0
 10  9  1  0  0  0  0
 11 10  1  0  0  0  0
 11  7  1  0  0  0  0
 12 11  2  0  0  0  0
 13 32  1  0  0  0  0
 13 30  1  0  0  0  0
 14 35  1  0  0  0  0
 15  1  1  0  0  0  0
 19  3  1  0  0  0  0
 22  5  1  0  0  0  0
 24  6  1  0  0  0  0
 28 10  1  0  0  0  0
 31 13  1  0  0  0  0
 33 14  1  0  0  0  0
 34 14  1  0  0  0  0
M  END
