314368997.xyz
 OpenBabel08132112103D
CCNC(=O)CCNc1nnc(s1)S
 26 26  0  0  0  0  0  0  0  0999 V2000
    2.1824    4.8058    9.0169 C   0  0  0  0  0  0  0  0  0  0  0  0
    1.7030    4.8135    7.5663 C   0  0  0  0  0  0  0  0  0  0  0  0
    0.6695    3.8254    7.2972 N   0  0  0  0  0  0  0  0  0  0  0  0
    0.9598    2.5573    6.9036 C   0  0  0  0  0  0  0  0  0  0  0  0
    2.1133    2.1786    6.7207 O   0  0  0  0  0  0  0  0  0  0  0  0
   -0.2450    1.6498    6.6777 C   0  0  0  0  0  0  0  0  0  0  0  0
    0.1625    0.1847    6.5047 C   0  0  0  0  0  0  0  0  0  0  0  0
    1.0378   -0.0293    5.3606 N   0  0  0  0  0  0  0  0  0  0  0  0
    0.5012    0.0172    4.1106 C   0  0  0  0  0  0  0  0  0  0  0  0
   -0.7785    0.0269    3.8467 N   0  0  0  0  0  0  0  0  0  0  0  0
   -1.0548    0.0062    2.5115 N   0  0  0  0  0  0  0  0  0  0  0  0
   -0.0000   -0.0000    1.7625 C   0  0  0  0  0  0  0  0  0  0  0  0
    1.5222   -0.0000    2.6615 S   0  0  0  0  0  0  0  0  0  0  0  0
    0.0000    0.0000    0.0000 S   0  0  0  0  0  0  0  0  0  0  0  0
    2.6147    3.8258    9.2697 H   0  0  0  0  0  0  0  0  0  0  0  0
    2.9565    5.5738    9.1736 H   0  0  0  0  0  0  0  0  0  0  0  0
    1.3540    5.0101    9.7147 H   0  0  0  0  0  0  0  0  0  0  0  0
    1.3104    5.8054    7.2900 H   0  0  0  0  0  0  0  0  0  0  0  0
    2.5432    4.5885    6.8939 H   0  0  0  0  0  0  0  0  0  0  0  0
   -0.2954    4.0615    7.4948 H   0  0  0  0  0  0  0  0  0  0  0  0
   -0.7849    1.9827    5.7750 H   0  0  0  0  0  0  0  0  0  0  0  0
   -0.9505    1.7511    7.5203 H   0  0  0  0  0  0  0  0  0  0  0  0
    0.6972   -0.1673    7.3990 H   0  0  0  0  0  0  0  0  0  0  0  0
   -0.7354   -0.4325    6.3710 H   0  0  0  0  0  0  0  0  0  0  0  0
    1.9411    0.4244    5.4810 H   0  0  0  0  0  0  0  0  0  0  0  0
   -1.3519    0.0181   -0.0623 H   0  0  0  0  0  0  0  0  0  0  0  0
  1 16  1  0  0  0  0
  1 15  1  0  0  0  0
  1 17  1  0  0  0  0
  2  1  1  0  0  0  0
  3 20  1  0  0  0  0
  3  2  1  0  0  0  0
  4  3  1  0  0  0  0
  5  4  2  0  0  0  0
  6  4  1  0  0  0  0
  6 22  1  0  0  0  0
  7  6  1  0  0  0  0
  7 23  1  0  0  0  0
  8 25  1  0  0  0  0
  8  7  1  0  0  0  0
  9  8  1  0  0  0  0
 10  9  2  0  0  0  0
 11 10  1  0  0  0  0
 12 11  2  0  0  0  0
 12 13  1  0  0  0  0
 13  9  1  0  0  0  0
 14 12  1  0  0  0  0
 18  2  1  0  0  0  0
 19  2  1  0  0  0  0
 21  6  1  0  0  0  0
 24  7  1  0  0  0  0
 26 14  1  0  0  0  0
M  END
