314367284.xyz
 OpenBabel08132112103D
COCCN(CC1(CS)CCCC1)CC
 40 40  0  0  0  0  0  0  0  0999 V2000
   -0.4064   -6.3246    1.2329 C   0  0  0  0  0  0  0  0  0  0  0  0
    0.6079   -5.3911    1.4802 O   0  0  0  0  0  0  0  0  0  0  0  0
    0.6048   -4.3044    0.5833 C   0  0  0  0  0  0  0  0  0  0  0  0
    1.7209   -3.3272    0.9152 C   0  0  0  0  0  0  0  0  0  0  0  0
    1.4869   -2.4938    2.0821 N   0  0  0  0  0  0  0  0  0  0  0  0
    2.1974   -1.2263    2.0689 C   0  0  0  0  0  0  0  0  0  0  0  0
    1.3780    0.0000    2.5232 C   0  0  0  0  0  0  0  0  0  0  0  0
   -0.0000    0.0000    1.8368 C   0  0  0  0  0  0  0  0  0  0  0  0
    0.0000    0.0000    0.0000 S   0  0  0  0  0  0  0  0  0  0  0  0
    1.1629    0.1091    4.0531 C   0  0  0  0  0  0  0  0  0  0  0  0
    0.9149    1.6084    4.3398 C   0  0  0  0  0  0  0  0  0  0  0  0
    1.5068    2.3737    3.1239 C   0  0  0  0  0  0  0  0  0  0  0  0
    2.1696    1.2951    2.2508 C   0  0  0  0  0  0  0  0  0  0  0  0
    1.4648   -3.1954    3.3679 C   0  0  0  0  0  0  0  0  0  0  0  0
    0.0641   -3.4380    3.9276 C   0  0  0  0  0  0  0  0  0  0  0  0
   -0.3296   -6.7575    0.2144 H   0  0  0  0  0  0  0  0  0  0  0  0
   -1.4162   -5.8771    1.3346 H   0  0  0  0  0  0  0  0  0  0  0  0
   -0.3070   -7.1362    1.9683 H   0  0  0  0  0  0  0  0  0  0  0  0
   -0.3689   -3.7734    0.6110 H   0  0  0  0  0  0  0  0  0  0  0  0
    0.7515   -4.6742   -0.4536 H   0  0  0  0  0  0  0  0  0  0  0  0
    2.6676   -3.9102    0.9888 H   0  0  0  0  0  0  0  0  0  0  0  0
    1.8147   -2.6604    0.0456 H   0  0  0  0  0  0  0  0  0  0  0  0
    3.1261   -1.2633    2.6788 H   0  0  0  0  0  0  0  0  0  0  0  0
    2.5140   -1.0282    1.0353 H   0  0  0  0  0  0  0  0  0  0  0  0
   -0.5097   -0.9385    2.0904 H   0  0  0  0  0  0  0  0  0  0  0  0
   -0.6294    0.8302    2.1859 H   0  0  0  0  0  0  0  0  0  0  0  0
    0.3299    1.2994   -0.1778 H   0  0  0  0  0  0  0  0  0  0  0  0
    0.3499   -0.5336    4.4198 H   0  0  0  0  0  0  0  0  0  0  0  0
    2.0852   -0.2227    4.5576 H   0  0  0  0  0  0  0  0  0  0  0  0
    1.3832    1.9133    5.2878 H   0  0  0  0  0  0  0  0  0  0  0  0
   -0.1605    1.8182    4.4469 H   0  0  0  0  0  0  0  0  0  0  0  0
    0.7065    2.8814    2.5622 H   0  0  0  0  0  0  0  0  0  0  0  0
    2.2192    3.1569    3.4238 H   0  0  0  0  0  0  0  0  0  0  0  0
    2.2015    1.5510    1.1807 H   0  0  0  0  0  0  0  0  0  0  0  0
    3.2141    1.1354    2.5698 H   0  0  0  0  0  0  0  0  0  0  0  0
    2.0491   -2.6115    4.0987 H   0  0  0  0  0  0  0  0  0  0  0  0
    1.9765   -4.1693    3.2663 H   0  0  0  0  0  0  0  0  0  0  0  0
   -0.5203   -4.0681    3.2440 H   0  0  0  0  0  0  0  0  0  0  0  0
   -0.4789   -2.4924    4.0775 H   0  0  0  0  0  0  0  0  0  0  0  0
    0.1203   -3.9563    4.8995 H   0  0  0  0  0  0  0  0  0  0  0  0
  1 17  1  0  0  0  0
  1  2  1  0  0  0  0
  1 18  1  0  0  0  0
  3 19  1  0  0  0  0
  3  4  1  0  0  0  0
  3  2  1  0  0  0  0
  4 21  1  0  0  0  0
  4  5  1  0  0  0  0
  5 14  1  0  0  0  0
  6  5  1  0  0  0  0
  6  7  1  0  0  0  0
  6 23  1  0  0  0  0
  7 10  1  0  0  0  0
  8 25  1  0  0  0  0
  8 26  1  0  0  0  0
  8  7  1  0  0  0  0
  9  8  1  0  0  0  0
 10 11  1  0  0  0  0
 10 28  1  0  0  0  0
 10 29  1  0  0  0  0
 11 31  1  0  0  0  0
 11 30  1  0  0  0  0
 12 33  1  0  0  0  0
 12 11  1  0  0  0  0
 13  7  1  0  0  0  0
 13 35  1  0  0  0  0
 13 12  1  0  0  0  0
 14 15  1  0  0  0  0
 14 36  1  0  0  0  0
 15 39  1  0  0  0  0
 15 40  1  0  0  0  0
 16  1  1  0  0  0  0
 20  3  1  0  0  0  0
 22  4  1  0  0  0  0
 24  6  1  0  0  0  0
 27  9  1  0  0  0  0
 32 12  1  0  0  0  0
 34 13  1  0  0  0  0
 37 14  1  0  0  0  0
 38 15  1  0  0  0  0
M  END
