314389843.xyz
 OpenBabel08132112103D
SCC1(COCCOC(C)C)CCOCC1
 40 40  0  0  0  0  0  0  0  0999 V2000
    0.0000    0.0000    0.0000 S   0  0  0  0  0  0  0  0  0  0  0  0
    0.0000    0.0000    1.8345 C   0  0  0  0  0  0  0  0  0  0  0  0
    1.3691    0.0000    2.5446 C   0  0  0  0  0  0  0  0  0  0  0  0
    1.0885   -0.1219    4.0532 C   0  0  0  0  0  0  0  0  0  0  0  0
    0.5165   -1.3784    4.3294 O   0  0  0  0  0  0  0  0  0  0  0  0
    0.2314   -1.5999    5.6870 C   0  0  0  0  0  0  0  0  0  0  0  0
   -0.3172   -3.0142    5.8349 C   0  0  0  0  0  0  0  0  0  0  0  0
   -0.6223   -3.3013    7.1775 O   0  0  0  0  0  0  0  0  0  0  0  0
   -1.9503   -2.9962    7.5964 C   0  0  0  0  0  0  0  0  0  0  0  0
   -2.9002   -4.1389    7.2425 C   0  0  0  0  0  0  0  0  0  0  0  0
   -1.8918   -2.7285    9.0930 C   0  0  0  0  0  0  0  0  0  0  0  0
    2.2417   -1.1789    2.0768 C   0  0  0  0  0  0  0  0  0  0  0  0
    3.5804   -1.2160    2.8272 C   0  0  0  0  0  0  0  0  0  0  0  0
    4.0398    0.0755    3.2051 O   0  0  0  0  0  0  0  0  0  0  0  0
    3.6675    1.0815    2.2893 C   0  0  0  0  0  0  0  0  0  0  0  0
    2.1479    1.3190    2.3027 C   0  0  0  0  0  0  0  0  0  0  0  0
    0.2795    1.3115   -0.1741 H   0  0  0  0  0  0  0  0  0  0  0  0
   -0.6051    0.8511    2.1832 H   0  0  0  0  0  0  0  0  0  0  0  0
   -0.5422   -0.9142    2.1146 H   0  0  0  0  0  0  0  0  0  0  0  0
    2.0283    0.0124    4.6189 H   0  0  0  0  0  0  0  0  0  0  0  0
    0.3996    0.6919    4.3647 H   0  0  0  0  0  0  0  0  0  0  0  0
    1.1406   -1.4901    6.3113 H   0  0  0  0  0  0  0  0  0  0  0  0
   -0.5087   -0.8613    6.0600 H   0  0  0  0  0  0  0  0  0  0  0  0
    0.4470   -3.7332    5.4978 H   0  0  0  0  0  0  0  0  0  0  0  0
   -1.1923   -3.1354    5.1692 H   0  0  0  0  0  0  0  0  0  0  0  0
   -2.2944   -2.0751    7.0840 H   0  0  0  0  0  0  0  0  0  0  0  0
   -2.5836   -5.0626    7.7523 H   0  0  0  0  0  0  0  0  0  0  0  0
   -2.9070   -4.3316    6.1584 H   0  0  0  0  0  0  0  0  0  0  0  0
   -3.9319   -3.9043    7.5491 H   0  0  0  0  0  0  0  0  0  0  0  0
   -1.2134   -1.8894    9.3077 H   0  0  0  0  0  0  0  0  0  0  0  0
   -2.8900   -2.4888    9.4905 H   0  0  0  0  0  0  0  0  0  0  0  0
   -1.5108   -3.6185    9.6185 H   0  0  0  0  0  0  0  0  0  0  0  0
    2.4001   -1.0772    0.9931 H   0  0  0  0  0  0  0  0  0  0  0  0
    1.7086   -2.1276    2.2354 H   0  0  0  0  0  0  0  0  0  0  0  0
    3.4814   -1.7864    3.7639 H   0  0  0  0  0  0  0  0  0  0  0  0
    4.3471   -1.7240    2.2086 H   0  0  0  0  0  0  0  0  0  0  0  0
    4.2106    1.9929    2.5804 H   0  0  0  0  0  0  0  0  0  0  0  0
    4.0029    0.8158    1.2666 H   0  0  0  0  0  0  0  0  0  0  0  0
    1.8552    1.7632    1.3385 H   0  0  0  0  0  0  0  0  0  0  0  0
    1.8814    2.0520    3.0826 H   0  0  0  0  0  0  0  0  0  0  0  0
  1  2  1  0  0  0  0
  2 19  1  0  0  0  0
  2 18  1  0  0  0  0
  2  3  1  0  0  0  0
  3  4  1  0  0  0  0
  4  5  1  0  0  0  0
  4 21  1  0  0  0  0
  4 20  1  0  0  0  0
  5  6  1  0  0  0  0
  6  7  1  0  0  0  0
  6 23  1  0  0  0  0
  6 22  1  0  0  0  0
  7  8  1  0  0  0  0
  8  9  1  0  0  0  0
  9 11  1  0  0  0  0
 10 29  1  0  0  0  0
 10  9  1  0  0  0  0
 10 27  1  0  0  0  0
 11 30  1  0  0  0  0
 11 31  1  0  0  0  0
 11 32  1  0  0  0  0
 12 34  1  0  0  0  0
 12  3  1  0  0  0  0
 12 13  1  0  0  0  0
 13 14  1  0  0  0  0
 13 35  1  0  0  0  0
 15 16  1  0  0  0  0
 15 37  1  0  0  0  0
 15 14  1  0  0  0  0
 16  3  1  0  0  0  0
 16 40  1  0  0  0  0
 17  1  1  0  0  0  0
 24  7  1  0  0  0  0
 25  7  1  0  0  0  0
 26  9  1  0  0  0  0
 28 10  1  0  0  0  0
 33 12  1  0  0  0  0
 36 13  1  0  0  0  0
 38 15  1  0  0  0  0
 39 16  1  0  0  0  0
M  END
