314351948.xyz
 OpenBabel08132112103D
SCC1(CCC1)Cn1cc(c(n1)[N+](=O)[O-])Cl
 28 29  0  0  0  0  0  0  0  0999 V2000
    0.0000    0.0000    0.0000 S   0  0  0  0  0  0  0  0  0  0  0  0
    0.0000    0.0000    1.8330 C   0  0  0  0  0  0  0  0  0  0  0  0
    1.3652    0.0000    2.5374 C   0  0  0  0  0  0  0  0  0  0  0  0
    2.3258    1.1444    2.0927 C   0  0  0  0  0  0  0  0  0  0  0  0
    3.2075    0.1085    1.3524 C   0  0  0  0  0  0  0  0  0  0  0  0
    2.3797   -1.0418    1.9773 C   0  0  0  0  0  0  0  0  0  0  0  0
    1.0617   -0.0798    4.0442 C   0  0  0  0  0  0  0  0  0  0  0  0
    2.2335   -0.1685    4.9042 N   0  0  0  0  0  0  0  0  0  0  0  0
    2.7898   -1.3026    5.4201 C   0  0  0  0  0  0  0  0  0  0  0  0
    3.9174   -0.9050    6.1227 C   0  0  0  0  0  0  0  0  0  0  0  0
    3.9390    0.5057    5.9533 C   0  0  0  0  0  0  0  0  0  0  0  0
    2.9170    0.9270    5.2185 N   0  0  0  0  0  0  0  0  0  0  0  0
    4.9015    1.4675    6.4663 N   0  0  0  0  0  0  0  0  0  0  0  0
    4.7842    2.6259    6.1128 O   0  0  0  0  0  0  0  0  0  0  0  0
    5.7599    1.0265    7.2152 O   0  0  0  0  0  0  0  0  0  0  0  0
    4.9868   -1.9371    6.9756 Cl  0  0  0  0  0  0  0  0  0  0  0  0
    0.4103    1.2773   -0.1674 H   0  0  0  0  0  0  0  0  0  0  0  0
   -0.5495   -0.9204    2.0911 H   0  0  0  0  0  0  0  0  0  0  0  0
   -0.6099    0.8472    2.1849 H   0  0  0  0  0  0  0  0  0  0  0  0
    1.8658    1.9296    1.4735 H   0  0  0  0  0  0  0  0  0  0  0  0
    2.8291    1.6295    2.9388 H   0  0  0  0  0  0  0  0  0  0  0  0
    4.2756    0.1237    1.6121 H   0  0  0  0  0  0  0  0  0  0  0  0
    3.1046    0.1549    0.2596 H   0  0  0  0  0  0  0  0  0  0  0  0
    1.9538   -1.7664    1.2688 H   0  0  0  0  0  0  0  0  0  0  0  0
    2.9205   -1.5906    2.7613 H   0  0  0  0  0  0  0  0  0  0  0  0
    0.4456   -0.9669    4.2565 H   0  0  0  0  0  0  0  0  0  0  0  0
    0.4997    0.8101    4.3635 H   0  0  0  0  0  0  0  0  0  0  0  0
    2.3626   -2.2902    5.2696 H   0  0  0  0  0  0  0  0  0  0  0  0
  1  2  1  0  0  0  0
  2 18  1  0  0  0  0
  2 19  1  0  0  0  0
  2  3  1  0  0  0  0
  3  7  1  0  0  0  0
  4  3  1  0  0  0  0
  4 21  1  0  0  0  0
  5 22  1  0  0  0  0
  5  6  1  0  0  0  0
  5  4  1  0  0  0  0
  6  3  1  0  0  0  0
  6 25  1  0  0  0  0
  7 26  1  0  0  0  0
  7 27  1  0  0  0  0
  7  8  1  0  0  0  0
  8 12  1  0  0  0  0
  8  9  1  0  0  0  0
  9 10  2  0  0  0  0
 10 16  1  0  0  0  0
 11 10  1  0  0  0  0
 11 13  1  0  0  0  0
 12 11  2  0  0  0  0
 13 15  2  0  0  0  0
 14 13  2  0  0  0  0
 17  1  1  0  0  0  0
 20  4  1  0  0  0  0
 23  5  1  0  0  0  0
 24  6  1  0  0  0  0
 28  9  1  0  0  0  0
M  END
