314399753.xyz
 OpenBabel08132112103D
Clc1ccc(c(c1)n1c(S)ncc1C)C
 26 27  0  0  1  0  0  0  0  0999 V2000
    5.4931   -2.4986    1.1667 Cl  0  0  0  0  0  0  0  0  0  0  0  0
    4.5433   -1.0396    1.2957 C   0  0  0  0  0  0  0  0  0  0  0  0
    5.0766    0.1795    0.8720 C   0  0  0  0  0  0  0  0  0  0  0  0
    4.3065    1.3382    0.9808 C   0  0  0  0  0  0  0  0  0  0  0  0
    3.0077    1.3178    1.5076 C   0  0  0  0  0  0  0  0  0  0  0  0
    2.4992    0.0719    1.9228 C   0  0  0  0  0  0  0  0  0  0  0  0
    3.2524   -1.1007    1.8202 C   0  0  0  0  0  0  0  0  0  0  0  0
    1.1853   -0.0000    2.4695 N   0  0  0  0  0  0  0  0  0  0  0  0
   -0.0000    0.0000    1.7679 C   0  0  0  0  0  0  0  0  0  0  0  0
    0.0000    0.0000    0.0000 S   0  0  0  0  0  0  0  0  0  0  0  0
   -1.0413   -0.0092    2.5605 N   0  0  0  0  0  0  0  0  0  0  0  0
   -0.5289   -0.0083    3.8415 C   0  0  0  0  0  0  0  0  0  0  0  0
    0.8468   -0.0033    3.8270 C   0  0  2  0  0  0  0  0  0  0  0  0
    1.8737    0.0082    4.9055 C   0  0  0  0  0  0  0  0  0  0  0  0
    2.1747    2.5656    1.6158 C   0  0  0  0  0  0  0  0  0  0  0  0
    6.0868    0.2157    0.4622 H   0  0  0  0  0  0  0  0  0  0  0  0
    4.7294    2.2898    0.6498 H   0  0  0  0  0  0  0  0  0  0  0  0
    2.8251   -2.0497    2.1439 H   0  0  0  0  0  0  0  0  0  0  0  0
   -1.3473    0.0841   -0.0554 H   0  0  0  0  0  0  0  0  0  0  0  0
   -1.1788   -0.0135    4.7158 H   0  0  0  0  0  0  0  0  0  0  0  0
    2.5192   -0.8856    4.8738 H   0  0  0  0  0  0  0  0  0  0  0  0
    2.5370    0.8867    4.8329 H   0  0  0  0  0  0  0  0  0  0  0  0
    1.3790    0.0353    5.8862 H   0  0  0  0  0  0  0  0  0  0  0  0
    1.3608    2.5535    0.8721 H   0  0  0  0  0  0  0  0  0  0  0  0
    1.6987    2.6464    2.6051 H   0  0  0  0  0  0  0  0  0  0  0  0
    2.7841    3.4637    1.4441 H   0  0  0  0  0  0  0  0  0  0  0  0
  1  2  1  0  0  0  0
  2  7  2  0  0  0  0
  3  4  2  0  0  0  0
  3  2  1  0  0  0  0
  4  5  1  0  0  0  0
  5 15  1  0  0  0  0
  5  6  2  0  0  0  0
  6  8  1  0  0  0  0
  7  6  1  0  0  0  0
  7 18  1  0  0  0  0
  8 13  1  0  0  0  0
  9  8  1  0  0  0  0
  9 11  2  0  0  0  0
 10  9  1  0  0  0  0
 11 12  2  0  0  0  0
 12 20  1  0  0  0  0
 13 12  1  0  0  0  0
 13 14  1  1  0  0  0
 14 23  1  0  0  0  0
 15 25  1  0  0  0  0
 16  3  1  0  0  0  0
 17  4  1  0  0  0  0
 19 10  1  0  0  0  0
 21 14  1  0  0  0  0
 22 14  1  0  0  0  0
 24 15  1  0  0  0  0
 26 15  1  0  0  0  0
M  RAD  1  13   2
M  END
