314348791.xyz
 OpenBabel08132112103D
CCCC(CN(C1CCCC1)CC)CS
 42 42  0  0  1  0  0  0  0  0999 V2000
   -0.7602   -1.4206    4.9257 C   0  0  0  0  0  0  0  0  0  0  0  0
    0.7117   -1.5138    4.5158 C   0  0  0  0  0  0  0  0  0  0  0  0
    1.3328   -0.1949    4.0166 C   0  0  0  0  0  0  0  0  0  0  0  0
    1.3860    0.0000    2.4924 C   0  0  2  0  0  0  0  0  0  0  0  0
    2.1674    1.2795    2.1384 C   0  0  0  0  0  0  0  0  0  0  0  0
    3.5635    1.2505    2.5652 N   0  0  0  0  0  0  0  0  0  0  0  0
    4.5276    1.1152    1.4691 C   0  0  0  0  0  0  0  0  0  0  0  0
    4.2990   -0.1889    0.6816 C   0  0  0  0  0  0  0  0  0  0  0  0
    4.8783   -1.3000    1.5842 C   0  0  0  0  0  0  0  0  0  0  0  0
    5.9247   -0.5882    2.4866 C   0  0  0  0  0  0  0  0  0  0  0  0
    5.9542    0.8683    1.9864 C   0  0  0  0  0  0  0  0  0  0  0  0
    3.8916    2.2340    3.5920 C   0  0  0  0  0  0  0  0  0  0  0  0
    4.0507    3.6807    3.1087 C   0  0  0  0  0  0  0  0  0  0  0  0
    0.0000    0.0000    1.8420 C   0  0  0  0  0  0  0  0  0  0  0  0
    0.0000    0.0000    0.0000 S   0  0  0  0  0  0  0  0  0  0  0  0
   -0.8924   -0.6962    5.7465 H   0  0  0  0  0  0  0  0  0  0  0  0
   -1.1426   -2.3927    5.2763 H   0  0  0  0  0  0  0  0  0  0  0  0
   -1.4049   -1.0909    4.0962 H   0  0  0  0  0  0  0  0  0  0  0  0
    1.2870   -1.8726    5.3858 H   0  0  0  0  0  0  0  0  0  0  0  0
    0.8381   -2.2934    3.7427 H   0  0  0  0  0  0  0  0  0  0  0  0
    0.8053    0.6617    4.4773 H   0  0  0  0  0  0  0  0  0  0  0  0
    2.3768   -0.1312    4.3594 H   0  0  0  0  0  0  0  0  0  0  0  0
    1.9453   -0.8577    2.0810 H   0  0  0  0  0  0  0  0  0  0  0  0
    2.0925    1.4524    1.0526 H   0  0  0  0  0  0  0  0  0  0  0  0
    1.6459    2.1329    2.6091 H   0  0  0  0  0  0  0  0  0  0  0  0
    4.4913    1.9926    0.7876 H   0  0  0  0  0  0  0  0  0  0  0  0
    3.2533   -0.3538    0.3901 H   0  0  0  0  0  0  0  0  0  0  0  0
    4.8756   -0.1184   -0.2549 H   0  0  0  0  0  0  0  0  0  0  0  0
    4.0874   -1.7548    2.1985 H   0  0  0  0  0  0  0  0  0  0  0  0
    5.3239   -2.1102    0.9869 H   0  0  0  0  0  0  0  0  0  0  0  0
    5.6021   -0.6172    3.5380 H   0  0  0  0  0  0  0  0  0  0  0  0
    6.9182   -1.0595    2.4393 H   0  0  0  0  0  0  0  0  0  0  0  0
    6.2968    1.5859    2.7443 H   0  0  0  0  0  0  0  0  0  0  0  0
    6.6401    0.9645    1.1291 H   0  0  0  0  0  0  0  0  0  0  0  0
    4.8090    1.9208    4.1161 H   0  0  0  0  0  0  0  0  0  0  0  0
    3.0971    2.1900    4.3532 H   0  0  0  0  0  0  0  0  0  0  0  0
    4.2328    4.3568    3.9597 H   0  0  0  0  0  0  0  0  0  0  0  0
    4.8974    3.7863    2.4127 H   0  0  0  0  0  0  0  0  0  0  0  0
    3.1452    4.0322    2.5878 H   0  0  0  0  0  0  0  0  0  0  0  0
   -0.5971   -0.8585    2.1734 H   0  0  0  0  0  0  0  0  0  0  0  0
   -0.5623    0.9071    2.1199 H   0  0  0  0  0  0  0  0  0  0  0  0
    0.5501   -1.2277   -0.1453 H   0  0  0  0  0  0  0  0  0  0  0  0
  1 17  1  0  0  0  0
  1 16  1  0  0  0  0
  2  1  1  0  0  0  0
  2 19  1  0  0  0  0
  3 22  1  0  0  0  0
  3 21  1  0  0  0  0
  3  2  1  0  0  0  0
  4 23  1  6  0  0  0
  4  3  1  0  0  0  0
  5  4  1  0  0  0  0
  5  6  1  0  0  0  0
  5 25  1  0  0  0  0
  6 12  1  0  0  0  0
  7 11  1  0  0  0  0
  7  6  1  0  0  0  0
  8  7  1  0  0  0  0
  8  9  1  0  0  0  0
  9 29  1  0  0  0  0
  9 10  1  0  0  0  0
 10 31  1  0  0  0  0
 11 10  1  0  0  0  0
 11 33  1  0  0  0  0
 12 35  1  0  0  0  0
 12 36  1  0  0  0  0
 13 12  1  0  0  0  0
 13 37  1  0  0  0  0
 14 41  1  0  0  0  0
 14 40  1  0  0  0  0
 14  4  1  0  0  0  0
 15 14  1  0  0  0  0
 18  1  1  0  0  0  0
 20  2  1  0  0  0  0
 24  5  1  0  0  0  0
 26  7  1  0  0  0  0
 27  8  1  0  0  0  0
 28  8  1  0  0  0  0
 30  9  1  0  0  0  0
 32 10  1  0  0  0  0
 34 11  1  0  0  0  0
 38 13  1  0  0  0  0
 39 13  1  0  0  0  0
 42 15  1  0  0  0  0
M  END
