314369263.xyz
 OpenBabel08132112103D
CCOC1CCN(CC1)CC=CCS
 35 35  0  0  1  0  0  0  0  0999 V2000
    3.9898   -9.0147    0.5064 C   0  0  0  0  0  0  0  0  0  0  0  0
    3.5740   -7.9809    1.5355 C   0  0  0  0  0  0  0  0  0  0  0  0
    3.0877   -6.8445    0.8595 O   0  0  0  0  0  0  0  0  0  0  0  0
    2.6323   -5.7913    1.6868 C   0  0  1  0  0  0  0  0  0  0  0  0
    3.7718   -4.9157    2.2123 C   0  0  0  0  0  0  0  0  0  0  0  0
    3.2313   -3.8372    3.1640 C   0  0  0  0  0  0  0  0  0  0  0  0
    1.8675   -3.4612    2.8062 N   0  0  0  0  0  0  0  0  0  0  0  0
    1.6127   -3.4846    1.3748 C   0  0  0  0  0  0  0  0  0  0  0  0
    1.6690   -4.9327    0.8568 C   0  0  0  0  0  0  0  0  0  0  0  0
    1.3460   -2.3043    3.5214 C   0  0  0  0  0  0  0  0  0  0  0  0
    1.9601   -0.9788    3.1268 C   0  0  0  0  0  0  0  0  0  0  0  0
    1.3860    0.0000    2.4106 C   0  0  0  0  0  0  0  0  0  0  0  0
    0.0000    0.0000    1.8489 C   0  0  0  0  0  0  0  0  0  0  0  0
    0.0000    0.0000    0.0000 S   0  0  0  0  0  0  0  0  0  0  0  0
    4.7849   -8.6140   -0.1411 H   0  0  0  0  0  0  0  0  0  0  0  0
    3.1347   -9.2855   -0.1320 H   0  0  0  0  0  0  0  0  0  0  0  0
    4.3643   -9.9258    0.9984 H   0  0  0  0  0  0  0  0  0  0  0  0
    2.7885   -8.3913    2.2046 H   0  0  0  0  0  0  0  0  0  0  0  0
    4.4363   -7.7223    2.1835 H   0  0  0  0  0  0  0  0  0  0  0  0
    2.0889   -6.2156    2.5540 H   0  0  0  0  0  0  0  0  0  0  0  0
    4.5318   -5.5197    2.7304 H   0  0  0  0  0  0  0  0  0  0  0  0
    4.2719   -4.4573    1.3431 H   0  0  0  0  0  0  0  0  0  0  0  0
    3.2175   -4.2161    4.2022 H   0  0  0  0  0  0  0  0  0  0  0  0
    3.9312   -2.9739    3.1549 H   0  0  0  0  0  0  0  0  0  0  0  0
    0.6143   -3.0594    1.1922 H   0  0  0  0  0  0  0  0  0  0  0  0
    2.3252   -2.8411    0.8111 H   0  0  0  0  0  0  0  0  0  0  0  0
    2.0225   -4.9529   -0.1861 H   0  0  0  0  0  0  0  0  0  0  0  0
    0.6687   -5.3911    0.8705 H   0  0  0  0  0  0  0  0  0  0  0  0
    1.5194   -2.4752    4.5985 H   0  0  0  0  0  0  0  0  0  0  0  0
    0.2540   -2.2816    3.3824 H   0  0  0  0  0  0  0  0  0  0  0  0
    3.0008   -0.8254    3.4333 H   0  0  0  0  0  0  0  0  0  0  0  0
    1.9808    0.8870    2.1640 H   0  0  0  0  0  0  0  0  0  0  0  0
   -0.6090   -0.8369    2.2139 H   0  0  0  0  0  0  0  0  0  0  0  0
   -0.5290    0.9317    2.1054 H   0  0  0  0  0  0  0  0  0  0  0  0
    0.8013   -1.0797   -0.1410 H   0  0  0  0  0  0  0  0  0  0  0  0
  1 17  1  0  0  0  0
  1  2  1  0  0  0  0
  2 19  1  0  0  0  0
  2 18  1  0  0  0  0
  3  2  1  0  0  0  0
  3  4  1  0  0  0  0
  4  5  1  0  0  0  0
  4 20  1  1  0  0  0
  5 21  1  0  0  0  0
  5  6  1  0  0  0  0
  6 23  1  0  0  0  0
  7  6  1  0  0  0  0
  7 10  1  0  0  0  0
  8  7  1  0  0  0  0
  9 28  1  0  0  0  0
  9  8  1  0  0  0  0
  9  4  1  0  0  0  0
 10 29  1  0  0  0  0
 11 31  1  0  0  0  0
 11 10  1  0  0  0  0
 12 11  2  0  0  0  0
 13 34  1  0  0  0  0
 13 33  1  0  0  0  0
 13 12  1  0  0  0  0
 14 13  1  0  0  0  0
 15  1  1  0  0  0  0
 16  1  1  0  0  0  0
 22  5  1  0  0  0  0
 24  6  1  0  0  0  0
 25  8  1  0  0  0  0
 26  8  1  0  0  0  0
 27  9  1  0  0  0  0
 30 10  1  0  0  0  0
 32 12  1  0  0  0  0
 35 14  1  0  0  0  0
M  END
