314354506.xyz
 OpenBabel08132112103D
COCC1CCN(C1)CC(C(C)(C)C)CS
 43 43  0  0  1  0  0  0  0  0999 V2000
    3.7183    7.4719    1.6655 C   0  0  0  0  0  0  0  0  0  0  0  0
    2.6094    6.6178    1.6376 O   0  0  0  0  0  0  0  0  0  0  0  0
    2.9367    5.2606    1.7933 C   0  0  0  0  0  0  0  0  0  0  0  0
    1.6611    4.4322    1.7942 C   0  0  2  0  0  0  0  0  0  0  0  0
    0.7524    4.7329    3.0127 C   0  0  0  0  0  0  0  0  0  0  0  0
    0.9525    3.5189    3.9181 C   0  0  0  0  0  0  0  0  0  0  0  0
    1.0987    2.4280    2.9682 N   0  0  0  0  0  0  0  0  0  0  0  0
    1.9706    2.9199    1.9067 C   0  0  0  0  0  0  0  0  0  0  0  0
    1.4518    1.1479    3.5412 C   0  0  0  0  0  0  0  0  0  0  0  0
    1.3879   -0.0000    2.5143 C   0  0  1  0  0  0  0  0  0  0  0  0
    1.8121   -1.3832    3.1081 C   0  0  0  0  0  0  0  0  0  0  0  0
    0.9329   -1.7934    4.3024 C   0  0  0  0  0  0  0  0  0  0  0  0
    1.7056   -2.4660    2.0188 C   0  0  0  0  0  0  0  0  0  0  0  0
    3.2819   -1.3284    3.5660 C   0  0  0  0  0  0  0  0  0  0  0  0
    0.0000    0.0000    1.8351 C   0  0  0  0  0  0  0  0  0  0  0  0
    0.0000    0.0000    0.0000 S   0  0  0  0  0  0  0  0  0  0  0  0
    4.4373    7.2472    0.8510 H   0  0  0  0  0  0  0  0  0  0  0  0
    3.3564    8.5026    1.5375 H   0  0  0  0  0  0  0  0  0  0  0  0
    4.2685    7.4077    2.6270 H   0  0  0  0  0  0  0  0  0  0  0  0
    3.4904    5.1005    2.7449 H   0  0  0  0  0  0  0  0  0  0  0  0
    3.6099    4.9244    0.9755 H   0  0  0  0  0  0  0  0  0  0  0  0
    1.1270    4.6531    0.8581 H   0  0  0  0  0  0  0  0  0  0  0  0
    1.0094    5.6887    3.4905 H   0  0  0  0  0  0  0  0  0  0  0  0
   -0.2994    4.7880    2.6965 H   0  0  0  0  0  0  0  0  0  0  0  0
    0.1088    3.3333    4.6026 H   0  0  0  0  0  0  0  0  0  0  0  0
    1.8654    3.6449    4.5483 H   0  0  0  0  0  0  0  0  0  0  0  0
    3.0446    2.7682    2.1700 H   0  0  0  0  0  0  0  0  0  0  0  0
    1.7903    2.3789    0.9654 H   0  0  0  0  0  0  0  0  0  0  0  0
    0.7447    0.9486    4.3635 H   0  0  0  0  0  0  0  0  0  0  0  0
    2.4661    1.1841    3.9962 H   0  0  0  0  0  0  0  0  0  0  0  0
    2.1309    0.2276    1.7330 H   0  0  0  0  0  0  0  0  0  0  0  0
    1.0481   -1.1052    5.1533 H   0  0  0  0  0  0  0  0  0  0  0  0
    1.2125   -2.7992    4.6545 H   0  0  0  0  0  0  0  0  0  0  0  0
   -0.1349   -1.8242    4.0347 H   0  0  0  0  0  0  0  0  0  0  0  0
    2.0655   -3.4332    2.4043 H   0  0  0  0  0  0  0  0  0  0  0  0
    2.3187   -2.2073    1.1405 H   0  0  0  0  0  0  0  0  0  0  0  0
    0.6686   -2.6150    1.6816 H   0  0  0  0  0  0  0  0  0  0  0  0
    3.6202   -2.3265    3.8875 H   0  0  0  0  0  0  0  0  0  0  0  0
    3.4304   -0.6439    4.4137 H   0  0  0  0  0  0  0  0  0  0  0  0
    3.9400   -0.9992    2.7454 H   0  0  0  0  0  0  0  0  0  0  0  0
   -0.6427   -0.8147    2.1965 H   0  0  0  0  0  0  0  0  0  0  0  0
   -0.5043    0.9481    2.0686 H   0  0  0  0  0  0  0  0  0  0  0  0
    0.5552   -1.2182   -0.1845 H   0  0  0  0  0  0  0  0  0  0  0  0
  1 19  1  0  0  0  0
  2  1  1  0  0  0  0
  2  3  1  0  0  0  0
  3  4  1  0  0  0  0
  3 20  1  0  0  0  0
  4 22  1  6  0  0  0
  4  8  1  0  0  0  0
  4  5  1  0  0  0  0
  5 23  1  0  0  0  0
  5  6  1  0  0  0  0
  6 26  1  0  0  0  0
  6 25  1  0  0  0  0
  7  9  1  0  0  0  0
  7  6  1  0  0  0  0
  8 27  1  0  0  0  0
  8  7  1  0  0  0  0
  9 30  1  0  0  0  0
  9 29  1  0  0  0  0
 10 31  1  6  0  0  0
 10 11  1  0  0  0  0
 10  9  1  0  0  0  0
 11 14  1  0  0  0  0
 11 12  1  0  0  0  0
 12 33  1  0  0  0  0
 12 32  1  0  0  0  0
 13 35  1  0  0  0  0
 13 11  1  0  0  0  0
 14 38  1  0  0  0  0
 14 39  1  0  0  0  0
 15 42  1  0  0  0  0
 15 41  1  0  0  0  0
 15 10  1  0  0  0  0
 16 15  1  0  0  0  0
 17  1  1  0  0  0  0
 18  1  1  0  0  0  0
 21  3  1  0  0  0  0
 24  5  1  0  0  0  0
 28  8  1  0  0  0  0
 34 12  1  0  0  0  0
 36 13  1  0  0  0  0
 37 13  1  0  0  0  0
 40 14  1  0  0  0  0
 43 16  1  0  0  0  0
M  END
