314346402.xyz
 OpenBabel08132112103D
SCC1(COCc2cccs2)CCC1
 30 31  0  0  0  0  0  0  0  0999 V2000
    0.0000    0.0000    0.0000 S   0  0  0  0  0  0  0  0  0  0  0  0
    0.0000    0.0000    1.8344 C   0  0  0  0  0  0  0  0  0  0  0  0
    1.3680   -0.0000    2.5229 C   0  0  0  0  0  0  0  0  0  0  0  0
    1.1521   -0.0210    4.0331 C   0  0  0  0  0  0  0  0  0  0  0  0
    0.4893   -1.2122    4.3854 O   0  0  0  0  0  0  0  0  0  0  0  0
    0.2952   -1.3870    5.7680 C   0  0  0  0  0  0  0  0  0  0  0  0
   -0.2767   -2.7434    6.0234 C   0  0  0  0  0  0  0  0  0  0  0  0
   -1.2862   -3.1039    6.8822 C   0  0  0  0  0  0  0  0  0  0  0  0
   -1.5278   -4.5126    6.9009 C   0  0  0  0  0  0  0  0  0  0  0  0
   -0.7000   -5.1971    6.0481 C   0  0  0  0  0  0  0  0  0  0  0  0
    0.3832   -4.1353    5.2134 S   0  0  0  0  0  0  0  0  0  0  0  0
    2.3838    1.1080    2.1287 C   0  0  0  0  0  0  0  0  0  0  0  0
    3.5053    0.0397    2.0842 C   0  0  0  0  0  0  0  0  0  0  0  0
    2.4189   -1.0646    2.0948 C   0  0  0  0  0  0  0  0  0  0  0  0
    0.2425   -1.3194   -0.1671 H   0  0  0  0  0  0  0  0  0  0  0  0
   -0.5423    0.9202    2.1074 H   0  0  0  0  0  0  0  0  0  0  0  0
   -0.5998   -0.8460    2.1963 H   0  0  0  0  0  0  0  0  0  0  0  0
    2.1264    0.0451    4.5593 H   0  0  0  0  0  0  0  0  0  0  0  0
    0.5567    0.8645    4.3425 H   0  0  0  0  0  0  0  0  0  0  0  0
    1.2646   -1.2667    6.2982 H   0  0  0  0  0  0  0  0  0  0  0  0
   -0.3916   -0.6213    6.1827 H   0  0  0  0  0  0  0  0  0  0  0  0
   -1.8405   -2.3800    7.4822 H   0  0  0  0  0  0  0  0  0  0  0  0
   -2.2922   -4.9931    7.5129 H   0  0  0  0  0  0  0  0  0  0  0  0
   -0.6795   -6.2668    5.8456 H   0  0  0  0  0  0  0  0  0  0  0  0
    2.1593    1.5118    1.1312 H   0  0  0  0  0  0  0  0  0  0  0  0
    2.4998    1.9458    2.8357 H   0  0  0  0  0  0  0  0  0  0  0  0
    4.1718    0.0657    1.2097 H   0  0  0  0  0  0  0  0  0  0  0  0
    4.1292    0.0355    2.9908 H   0  0  0  0  0  0  0  0  0  0  0  0
    2.5455   -1.9160    2.7792 H   0  0  0  0  0  0  0  0  0  0  0  0
    2.2204   -1.4477    1.0843 H   0  0  0  0  0  0  0  0  0  0  0  0
  1  2  1  0  0  0  0
  2 16  1  0  0  0  0
  2 17  1  0  0  0  0
  2  3  1  0  0  0  0
  3  4  1  0  0  0  0
  4 19  1  0  0  0  0
  4  5  1  0  0  0  0
  4 18  1  0  0  0  0
  5  6  1  0  0  0  0
  6  7  1  0  0  0  0
  6 21  1  0  0  0  0
  6 20  1  0  0  0  0
  7  8  2  0  0  0  0
  8  9  1  0  0  0  0
  8 22  1  0  0  0  0
  9 23  1  0  0  0  0
 10  9  2  0  0  0  0
 11  7  1  0  0  0  0
 11 10  1  0  0  0  0
 12  3  1  0  0  0  0
 12 26  1  0  0  0  0
 13 14  1  0  0  0  0
 13 12  1  0  0  0  0
 13 28  1  0  0  0  0
 14  3  1  0  0  0  0
 14 29  1  0  0  0  0
 15  1  1  0  0  0  0
 24 10  1  0  0  0  0
 25 12  1  0  0  0  0
 27 13  1  0  0  0  0
 30 14  1  0  0  0  0
M  END
