314324181.xyz
 OpenBabel08132112103D
SCC1(CCOCC1)CN(c1ccccc1C)C
 41 42  0  0  0  0  0  0  0  0999 V2000
    0.0000    0.0000    0.0000 S   0  0  0  0  0  0  0  0  0  0  0  0
    0.0000   -0.0000    1.8463 C   0  0  0  0  0  0  0  0  0  0  0  0
    1.4141   -0.0000    2.4430 C   0  0  0  0  0  0  0  0  0  0  0  0
    2.2477   -1.1718    1.8876 C   0  0  0  0  0  0  0  0  0  0  0  0
    3.6642   -1.2030    2.4870 C   0  0  0  0  0  0  0  0  0  0  0  0
    4.1174    0.0812    2.8931 O   0  0  0  0  0  0  0  0  0  0  0  0
    3.6796    1.1057    2.0230 C   0  0  0  0  0  0  0  0  0  0  0  0
    2.1615    1.3245    2.1295 C   0  0  0  0  0  0  0  0  0  0  0  0
    1.2752   -0.1118    3.9905 C   0  0  0  0  0  0  0  0  0  0  0  0
    0.6325   -1.3205    4.4708 N   0  0  0  0  0  0  0  0  0  0  0  0
    1.4104   -2.4501    4.8479 C   0  0  0  0  0  0  0  0  0  0  0  0
    1.0808   -3.6913    4.2735 C   0  0  0  0  0  0  0  0  0  0  0  0
    1.7907   -4.8502    4.5779 C   0  0  0  0  0  0  0  0  0  0  0  0
    2.8679   -4.7815    5.4656 C   0  0  0  0  0  0  0  0  0  0  0  0
    3.1939   -3.5601    6.0534 C   0  0  0  0  0  0  0  0  0  0  0  0
    2.4739   -2.3849    5.7799 C   0  0  0  0  0  0  0  0  0  0  0  0
    2.8506   -1.1106    6.4929 C   0  0  0  0  0  0  0  0  0  0  0  0
   -0.6767   -1.1923    5.0815 C   0  0  0  0  0  0  0  0  0  0  0  0
   -1.2932    0.3687   -0.1395 H   0  0  0  0  0  0  0  0  0  0  0  0
   -0.5396    0.8957    2.1907 H   0  0  0  0  0  0  0  0  0  0  0  0
   -0.5359   -0.8914    2.2014 H   0  0  0  0  0  0  0  0  0  0  0  0
    2.3068   -1.0697    0.7922 H   0  0  0  0  0  0  0  0  0  0  0  0
    1.7429   -2.1288    2.0818 H   0  0  0  0  0  0  0  0  0  0  0  0
    3.6938   -1.8341    3.3864 H   0  0  0  0  0  0  0  0  0  0  0  0
    4.3721   -1.6373    1.7528 H   0  0  0  0  0  0  0  0  0  0  0  0
    4.2313    2.0159    2.3010 H   0  0  0  0  0  0  0  0  0  0  0  0
    3.9603    0.8607    0.9789 H   0  0  0  0  0  0  0  0  0  0  0  0
    1.9386    2.0593    2.9213 H   0  0  0  0  0  0  0  0  0  0  0  0
    1.7907    1.7499    1.1839 H   0  0  0  0  0  0  0  0  0  0  0  0
    0.6991    0.7611    4.3424 H   0  0  0  0  0  0  0  0  0  0  0  0
    2.2824    0.0076    4.4048 H   0  0  0  0  0  0  0  0  0  0  0  0
    0.2546   -3.7200    3.5594 H   0  0  0  0  0  0  0  0  0  0  0  0
    1.5155   -5.7992    4.1114 H   0  0  0  0  0  0  0  0  0  0  0  0
    3.4457   -5.6768    5.7068 H   0  0  0  0  0  0  0  0  0  0  0  0
    4.0212   -3.5109    6.7671 H   0  0  0  0  0  0  0  0  0  0  0  0
    3.3334   -1.3375    7.4546 H   0  0  0  0  0  0  0  0  0  0  0  0
    1.9726   -0.4794    6.6902 H   0  0  0  0  0  0  0  0  0  0  0  0
    3.5629   -0.5084    5.9028 H   0  0  0  0  0  0  0  0  0  0  0  0
   -1.3420   -0.5795    4.4528 H   0  0  0  0  0  0  0  0  0  0  0  0
   -0.6482   -0.7307    6.0926 H   0  0  0  0  0  0  0  0  0  0  0  0
   -1.1413   -2.1837    5.1855 H   0  0  0  0  0  0  0  0  0  0  0  0
  1  2  1  0  0  0  0
  2 20  1  0  0  0  0
  2 21  1  0  0  0  0
  2  3  1  0  0  0  0
  3  9  1  0  0  0  0
  4 23  1  0  0  0  0
  4  3  1  0  0  0  0
  4  5  1  0  0  0  0
  5  6  1  0  0  0  0
  5 24  1  0  0  0  0
  7  8  1  0  0  0  0
  7 26  1  0  0  0  0
  7  6  1  0  0  0  0
  8  3  1  0  0  0  0
  8 28  1  0  0  0  0
  9 30  1  0  0  0  0
  9 31  1  0  0  0  0
  9 10  1  0  0  0  0
 10 11  1  0  0  0  0
 10 18  1  0  0  0  0
 11 16  2  0  0  0  0
 12 13  2  0  0  0  0
 12 11  1  0  0  0  0
 13 14  1  0  0  0  0
 14 34  1  0  0  0  0
 14 15  2  0  0  0  0
 15 35  1  0  0  0  0
 16 15  1  0  0  0  0
 16 17  1  0  0  0  0
 17 37  1  0  0  0  0
 17 36  1  0  0  0  0
 18 41  1  0  0  0  0
 18 40  1  0  0  0  0
 19  1  1  0  0  0  0
 22  4  1  0  0  0  0
 25  5  1  0  0  0  0
 27  7  1  0  0  0  0
 29  8  1  0  0  0  0
 32 12  1  0  0  0  0
 33 13  1  0  0  0  0
 38 17  1  0  0  0  0
 39 18  1  0  0  0  0
M  END
