314352960.xyz
 OpenBabel08132112103D
SCC(COCC=Cc1ccccc1)C
 33 33  0  0  1  0  0  0  0  0999 V2000
    0.0000    0.0000    0.0000 S   0  0  0  0  0  0  0  0  0  0  0  0
    0.0000    0.0000    1.8334 C   0  0  0  0  0  0  0  0  0  0  0  0
    1.3830    0.0000    2.4959 C   0  0  1  0  0  0  0  0  0  0  0  0
    1.2343    0.2277    3.9991 C   0  0  0  0  0  0  0  0  0  0  0  0
    0.5730    1.4474    4.2271 O   0  0  0  0  0  0  0  0  0  0  0  0
    0.3416    1.7313    5.5892 C   0  0  0  0  0  0  0  0  0  0  0  0
   -0.4567    2.9896    5.7044 C   0  0  0  0  0  0  0  0  0  0  0  0
   -0.1093    4.0295    6.4779 C   0  0  0  0  0  0  0  0  0  0  0  0
   -0.8515    5.2825    6.6769 C   0  0  0  0  0  0  0  0  0  0  0  0
   -2.0946    5.5443    6.0676 C   0  0  0  0  0  0  0  0  0  0  0  0
   -2.7554    6.7516    6.2815 C   0  0  0  0  0  0  0  0  0  0  0  0
   -2.1943    7.7293    7.1119 C   0  0  0  0  0  0  0  0  0  0  0  0
   -0.9640    7.4852    7.7258 C   0  0  0  0  0  0  0  0  0  0  0  0
   -0.3026    6.2752    7.5094 C   0  0  0  0  0  0  0  0  0  0  0  0
    2.1730   -1.2798    2.2251 C   0  0  0  0  0  0  0  0  0  0  0  0
    0.3487   -1.2947   -0.1750 H   0  0  0  0  0  0  0  0  0  0  0  0
   -0.6061   -0.8465    2.1961 H   0  0  0  0  0  0  0  0  0  0  0  0
   -0.5310    0.9200    2.1128 H   0  0  0  0  0  0  0  0  0  0  0  0
    1.9451    0.8588    2.0901 H   0  0  0  0  0  0  0  0  0  0  0  0
    0.6664   -0.6126    4.4565 H   0  0  0  0  0  0  0  0  0  0  0  0
    2.2357    0.2325    4.4779 H   0  0  0  0  0  0  0  0  0  0  0  0
   -0.2156    0.8868    6.0540 H   0  0  0  0  0  0  0  0  0  0  0  0
    1.2979    1.8238    6.1441 H   0  0  0  0  0  0  0  0  0  0  0  0
   -1.3757    3.0109    5.1093 H   0  0  0  0  0  0  0  0  0  0  0  0
    0.8324    3.9606    7.0360 H   0  0  0  0  0  0  0  0  0  0  0  0
   -2.5503    4.7935    5.4192 H   0  0  0  0  0  0  0  0  0  0  0  0
   -3.7184    6.9336    5.7979 H   0  0  0  0  0  0  0  0  0  0  0  0
   -2.7159    8.6747    7.2783 H   0  0  0  0  0  0  0  0  0  0  0  0
   -0.5161    8.2403    8.3764 H   0  0  0  0  0  0  0  0  0  0  0  0
    0.6611    6.0900    7.9916 H   0  0  0  0  0  0  0  0  0  0  0  0
    1.6321   -2.1681    2.5948 H   0  0  0  0  0  0  0  0  0  0  0  0
    2.3451   -1.4104    1.1468 H   0  0  0  0  0  0  0  0  0  0  0  0
    3.1575   -1.2555    2.7185 H   0  0  0  0  0  0  0  0  0  0  0  0
  1  2  1  0  0  0  0
  2 18  1  0  0  0  0
  2 17  1  0  0  0  0
  2  3  1  0  0  0  0
  3 19  1  6  0  0  0
  3  4  1  0  0  0  0
  4  5  1  0  0  0  0
  4 20  1  0  0  0  0
  4 21  1  0  0  0  0
  5  6  1  0  0  0  0
  6  7  1  0  0  0  0
  6 22  1  0  0  0  0
  6 23  1  0  0  0  0
  7  8  2  0  0  0  0
  8  9  1  0  0  0  0
  8 25  1  0  0  0  0
  9 14  2  0  0  0  0
 10 11  2  0  0  0  0
 10  9  1  0  0  0  0
 11 12  1  0  0  0  0
 12 28  1  0  0  0  0
 12 13  2  0  0  0  0
 13 29  1  0  0  0  0
 14 13  1  0  0  0  0
 14 30  1  0  0  0  0
 15  3  1  0  0  0  0
 15 31  1  0  0  0  0
 15 33  1  0  0  0  0
 16  1  1  0  0  0  0
 24  7  1  0  0  0  0
 26 10  1  0  0  0  0
 27 11  1  0  0  0  0
 32 15  1  0  0  0  0
M  END
