314347003.xyz
 OpenBabel08132112103D
SCCCCCCn1nc(c(c1C)C)C
 37 37  0  0  0  0  0  0  0  0999 V2000
    0.0000    0.0000    0.0000 S   0  0  0  0  0  0  0  0  0  0  0  0
    0.0000    0.0000    1.8350 C   0  0  0  0  0  0  0  0  0  0  0  0
    1.3877    0.0000    2.4687 C   0  0  0  0  0  0  0  0  0  0  0  0
    1.3372   -0.1048    3.9950 C   0  0  0  0  0  0  0  0  0  0  0  0
    2.7039   -0.0299    4.6850 C   0  0  0  0  0  0  0  0  0  0  0  0
    3.7299   -1.0807    4.2450 C   0  0  0  0  0  0  0  0  0  0  0  0
    3.2438   -2.5274    4.3463 C   0  0  0  0  0  0  0  0  0  0  0  0
    2.7568   -2.8605    5.6737 N   0  0  0  0  0  0  0  0  0  0  0  0
    3.5025   -2.5425    6.7480 N   0  0  0  0  0  0  0  0  0  0  0  0
    2.8272   -2.9923    7.8021 C   0  0  0  0  0  0  0  0  0  0  0  0
    1.6146   -3.6246    7.4021 C   0  0  0  0  0  0  0  0  0  0  0  0
    1.6067   -3.5225    6.0140 C   0  0  0  0  0  0  0  0  0  0  0  0
    0.6145   -4.0093    5.0096 C   0  0  0  0  0  0  0  0  0  0  0  0
    0.5958   -4.2487    8.3035 C   0  0  0  0  0  0  0  0  0  0  0  0
    3.3432   -2.8136    9.1942 C   0  0  0  0  0  0  0  0  0  0  0  0
    0.6063    1.2005   -0.1524 H   0  0  0  0  0  0  0  0  0  0  0  0
   -0.6046    0.8451    2.2005 H   0  0  0  0  0  0  0  0  0  0  0  0
   -0.5464   -0.9185    2.1047 H   0  0  0  0  0  0  0  0  0  0  0  0
    1.9685   -0.8321    2.0381 H   0  0  0  0  0  0  0  0  0  0  0  0
    1.9218    0.9232    2.1792 H   0  0  0  0  0  0  0  0  0  0  0  0
    0.6985    0.7035    4.3918 H   0  0  0  0  0  0  0  0  0  0  0  0
    0.8276   -1.0425    4.2774 H   0  0  0  0  0  0  0  0  0  0  0  0
    2.5585   -0.1211    5.7731 H   0  0  0  0  0  0  0  0  0  0  0  0
    3.1400    0.9701    4.5153 H   0  0  0  0  0  0  0  0  0  0  0  0
    4.0441   -0.9099    3.2015 H   0  0  0  0  0  0  0  0  0  0  0  0
    4.6298   -0.9750    4.8687 H   0  0  0  0  0  0  0  0  0  0  0  0
    2.4236   -2.7151    3.6401 H   0  0  0  0  0  0  0  0  0  0  0  0
    4.0654   -3.2130    4.0748 H   0  0  0  0  0  0  0  0  0  0  0  0
    0.1761   -3.1853    4.4216 H   0  0  0  0  0  0  0  0  0  0  0  0
    1.0606   -4.7216    4.2958 H   0  0  0  0  0  0  0  0  0  0  0  0
   -0.2118   -4.5244    5.5179 H   0  0  0  0  0  0  0  0  0  0  0  0
    0.1663   -3.5128    9.0052 H   0  0  0  0  0  0  0  0  0  0  0  0
    1.0345   -5.0541    8.9173 H   0  0  0  0  0  0  0  0  0  0  0  0
   -0.2396   -4.6865    7.7370 H   0  0  0  0  0  0  0  0  0  0  0  0
    4.3096   -2.2914    9.1714 H   0  0  0  0  0  0  0  0  0  0  0  0
    2.6437   -2.2256    9.8125 H   0  0  0  0  0  0  0  0  0  0  0  0
    3.4828   -3.7835    9.7011 H   0  0  0  0  0  0  0  0  0  0  0  0
  1  2  1  0  0  0  0
  2 18  1  0  0  0  0
  2 17  1  0  0  0  0
  2  3  1  0  0  0  0
  3  4  1  0  0  0  0
  4 22  1  0  0  0  0
  4 21  1  0  0  0  0
  4  5  1  0  0  0  0
  5 23  1  0  0  0  0
  6  7  1  0  0  0  0
  6  5  1  0  0  0  0
  6 26  1  0  0  0  0
  7  8  1  0  0  0  0
  8 12  1  0  0  0  0
  8  9  1  0  0  0  0
  9 10  2  0  0  0  0
 10 15  1  0  0  0  0
 11 10  1  0  0  0  0
 11 14  1  0  0  0  0
 12 11  2  0  0  0  0
 13 31  1  0  0  0  0
 13 12  1  0  0  0  0
 14 33  1  0  0  0  0
 14 32  1  0  0  0  0
 15 37  1  0  0  0  0
 15 36  1  0  0  0  0
 16  1  1  0  0  0  0
 19  3  1  0  0  0  0
 20  3  1  0  0  0  0
 24  5  1  0  0  0  0
 25  6  1  0  0  0  0
 27  7  1  0  0  0  0
 28  7  1  0  0  0  0
 29 13  1  0  0  0  0
 30 13  1  0  0  0  0
 34 14  1  0  0  0  0
 35 15  1  0  0  0  0
M  END
