314320894.xyz
 OpenBabel08132112103D
SCC(C(C)(C)C)COCC1CCCC1
 41 41  0  0  1  0  0  0  0  0999 V2000
    0.0000    0.0000    0.0000 S   0  0  0  0  0  0  0  0  0  0  0  0
    0.0000   -0.0000    1.8389 C   0  0  0  0  0  0  0  0  0  0  0  0
    1.4492    0.0000    2.3822 C   0  0  1  0  0  0  0  0  0  0  0  0
    1.9602    1.4226    2.8007 C   0  0  0  0  0  0  0  0  0  0  0  0
    3.4915    1.4112    2.9715 C   0  0  0  0  0  0  0  0  0  0  0  0
    1.3104    1.8747    4.1190 C   0  0  0  0  0  0  0  0  0  0  0  0
    1.6332    2.4514    1.7017 C   0  0  0  0  0  0  0  0  0  0  0  0
    1.4940   -1.0686    3.4821 C   0  0  0  0  0  0  0  0  0  0  0  0
    2.7941   -1.2672    3.9760 O   0  0  0  0  0  0  0  0  0  0  0  0
    2.9294   -2.3363    4.8885 C   0  0  0  0  0  0  0  0  0  0  0  0
    2.4199   -2.0249    6.2913 C   0  0  0  0  0  0  0  0  0  0  0  0
    2.6714   -3.1515    7.3040 C   0  0  0  0  0  0  0  0  0  0  0  0
    2.4310   -2.4819    8.6686 C   0  0  0  0  0  0  0  0  0  0  0  0
    2.8293   -0.9909    8.4750 C   0  0  0  0  0  0  0  0  0  0  0  0
    3.0954   -0.8169    6.9604 C   0  0  0  0  0  0  0  0  0  0  0  0
   -1.3438   -0.0249   -0.1622 H   0  0  0  0  0  0  0  0  0  0  0  0
   -0.5338   -0.9012    2.1737 H   0  0  0  0  0  0  0  0  0  0  0  0
   -0.5632    0.8679    2.2092 H   0  0  0  0  0  0  0  0  0  0  0  0
    2.1194   -0.3547    1.5794 H   0  0  0  0  0  0  0  0  0  0  0  0
    3.8063    0.7183    3.7593 H   0  0  0  0  0  0  0  0  0  0  0  0
    3.8488    2.4239    3.2201 H   0  0  0  0  0  0  0  0  0  0  0  0
    3.9844    1.1038    2.0348 H   0  0  0  0  0  0  0  0  0  0  0  0
    0.2095    1.8627    4.0626 H   0  0  0  0  0  0  0  0  0  0  0  0
    1.6151    2.9054    4.3596 H   0  0  0  0  0  0  0  0  0  0  0  0
    1.6159    1.2355    4.9604 H   0  0  0  0  0  0  0  0  0  0  0  0
    0.5528    2.6004    1.5616 H   0  0  0  0  0  0  0  0  0  0  0  0
    2.0709    3.4269    1.9672 H   0  0  0  0  0  0  0  0  0  0  0  0
    2.0505    2.1462    0.7301 H   0  0  0  0  0  0  0  0  0  0  0  0
    1.1175   -2.0191    3.0509 H   0  0  0  0  0  0  0  0  0  0  0  0
    0.7926   -0.7932    4.2947 H   0  0  0  0  0  0  0  0  0  0  0  0
    2.4243   -3.2410    4.4918 H   0  0  0  0  0  0  0  0  0  0  0  0
    4.0092   -2.5562    4.9376 H   0  0  0  0  0  0  0  0  0  0  0  0
    1.3295   -1.8436    6.2494 H   0  0  0  0  0  0  0  0  0  0  0  0
    3.7227   -3.4819    7.2190 H   0  0  0  0  0  0  0  0  0  0  0  0
    2.0383   -4.0374    7.1388 H   0  0  0  0  0  0  0  0  0  0  0  0
    1.3640   -2.5570    8.9331 H   0  0  0  0  0  0  0  0  0  0  0  0
    2.9916   -2.9713    9.4794 H   0  0  0  0  0  0  0  0  0  0  0  0
    3.7162   -0.7217    9.0686 H   0  0  0  0  0  0  0  0  0  0  0  0
    2.0179   -0.3273    8.8118 H   0  0  0  0  0  0  0  0  0  0  0  0
    4.1786   -0.8602    6.7518 H   0  0  0  0  0  0  0  0  0  0  0  0
    2.7387    0.1452    6.5664 H   0  0  0  0  0  0  0  0  0  0  0  0
  1  2  1  0  0  0  0
  2 17  1  0  0  0  0
  2 18  1  0  0  0  0
  2  3  1  0  0  0  0
  3 19  1  6  0  0  0
  3  4  1  0  0  0  0
  3  8  1  0  0  0  0
  4  5  1  0  0  0  0
  4  6  1  0  0  0  0
  5 21  1  0  0  0  0
  5 20  1  0  0  0  0
  6 24  1  0  0  0  0
  6 25  1  0  0  0  0
  7 27  1  0  0  0  0
  7  4  1  0  0  0  0
  8  9  1  0  0  0  0
  8 30  1  0  0  0  0
  9 10  1  0  0  0  0
 10 32  1  0  0  0  0
 10 11  1  0  0  0  0
 11 15  1  0  0  0  0
 11 12  1  0  0  0  0
 12 13  1  0  0  0  0
 13 36  1  0  0  0  0
 13 37  1  0  0  0  0
 14 13  1  0  0  0  0
 14 39  1  0  0  0  0
 14 38  1  0  0  0  0
 15 14  1  0  0  0  0
 16  1  1  0  0  0  0
 22  5  1  0  0  0  0
 23  6  1  0  0  0  0
 26  7  1  0  0  0  0
 28  7  1  0  0  0  0
 29  8  1  0  0  0  0
 31 10  1  0  0  0  0
 33 11  1  0  0  0  0
 34 12  1  0  0  0  0
 35 12  1  0  0  0  0
 40 15  1  0  0  0  0
 41 15  1  0  0  0  0
M  END
