314344952.xyz
 OpenBabel08132112103D
CCC(Cn1ccc(=O)cc1)(CS)CC
 34 34  0  0  0  0  0  0  0  0999 V2000
    1.6461    2.5130    1.7620 C   0  0  0  0  0  0  0  0  0  0  0  0
    2.2870    1.1518    2.0413 C   0  0  0  0  0  0  0  0  0  0  0  0
    1.3724    0.0000    2.5428 C   0  0  0  0  0  0  0  0  0  0  0  0
    2.1553   -1.3039    2.2215 C   0  0  0  0  0  0  0  0  0  0  0  0
    1.6234   -2.5400    2.7911 N   0  0  0  0  0  0  0  0  0  0  0  0
    2.0870   -3.0140    3.9972 C   0  0  0  0  0  0  0  0  0  0  0  0
    1.5579   -4.1071    4.6066 C   0  0  0  0  0  0  0  0  0  0  0  0
    0.4439   -4.8625    4.0197 C   0  0  0  0  0  0  0  0  0  0  0  0
   -0.0687   -5.8442    4.5491 O   0  0  0  0  0  0  0  0  0  0  0  0
    0.0205   -4.3238    2.7203 C   0  0  0  0  0  0  0  0  0  0  0  0
    0.6026   -3.2248    2.1728 C   0  0  0  0  0  0  0  0  0  0  0  0
    0.0000    0.0000    1.8384 C   0  0  0  0  0  0  0  0  0  0  0  0
    0.0000    0.0000    0.0000 S   0  0  0  0  0  0  0  0  0  0  0  0
    1.1376    0.0539    4.0755 C   0  0  0  0  0  0  0  0  0  0  0  0
    0.5251    1.3215    4.6727 C   0  0  0  0  0  0  0  0  0  0  0  0
    1.1057    2.9219    2.6254 H   0  0  0  0  0  0  0  0  0  0  0  0
    0.9452    2.4629    0.9158 H   0  0  0  0  0  0  0  0  0  0  0  0
    2.4258    3.2405    1.4872 H   0  0  0  0  0  0  0  0  0  0  0  0
    3.1024    1.2694    2.7764 H   0  0  0  0  0  0  0  0  0  0  0  0
    2.7701    0.8212    1.1067 H   0  0  0  0  0  0  0  0  0  0  0  0
    2.2187   -1.4227    1.1301 H   0  0  0  0  0  0  0  0  0  0  0  0
    3.1856   -1.1919    2.5885 H   0  0  0  0  0  0  0  0  0  0  0  0
    2.9154   -2.4509    4.4299 H   0  0  0  0  0  0  0  0  0  0  0  0
    1.9647   -4.4533    5.5579 H   0  0  0  0  0  0  0  0  0  0  0  0
   -0.7796   -4.8411    2.1885 H   0  0  0  0  0  0  0  0  0  0  0  0
    0.2945   -2.8326    1.2031 H   0  0  0  0  0  0  0  0  0  0  0  0
   -0.5480    0.9174    2.0900 H   0  0  0  0  0  0  0  0  0  0  0  0
   -0.6212   -0.8332    2.1961 H   0  0  0  0  0  0  0  0  0  0  0  0
    0.2961   -1.3039   -0.1951 H   0  0  0  0  0  0  0  0  0  0  0  0
    2.1086   -0.1236    4.5696 H   0  0  0  0  0  0  0  0  0  0  0  0
    0.5032   -0.8038    4.3521 H   0  0  0  0  0  0  0  0  0  0  0  0
    1.2004    2.1857    4.5967 H   0  0  0  0  0  0  0  0  0  0  0  0
   -0.4290    1.5948    4.1963 H   0  0  0  0  0  0  0  0  0  0  0  0
    0.3178    1.1639    5.7424 H   0  0  0  0  0  0  0  0  0  0  0  0
  1  2  1  0  0  0  0
  1 16  1  0  0  0  0
  2  3  1  0  0  0  0
  2 19  1  0  0  0  0
  3 14  1  0  0  0  0
  4  3  1  0  0  0  0
  4 22  1  0  0  0  0
  4  5  1  0  0  0  0
  5  6  1  0  0  0  0
  6 23  1  0  0  0  0
  6  7  2  0  0  0  0
  7 24  1  0  0  0  0
  8  9  2  0  0  0  0
  8  7  1  0  0  0  0
 10  8  1  0  0  0  0
 11 10  2  0  0  0  0
 11  5  1  0  0  0  0
 12 27  1  0  0  0  0
 12 28  1  0  0  0  0
 12  3  1  0  0  0  0
 13 12  1  0  0  0  0
 14 31  1  0  0  0  0
 14 30  1  0  0  0  0
 14 15  1  0  0  0  0
 15 34  1  0  0  0  0
 17  1  1  0  0  0  0
 18  1  1  0  0  0  0
 20  2  1  0  0  0  0
 21  4  1  0  0  0  0
 25 10  1  0  0  0  0
 26 11  1  0  0  0  0
 29 13  1  0  0  0  0
 32 15  1  0  0  0  0
 33 15  1  0  0  0  0
M  END
