314401896.xyz
 OpenBabel08132112103D
CCN(c1cccc(c1)C)CC1(CS)CC1
 37 38  0  0  0  0  0  0  0  0999 V2000
    2.1559   -1.4610    6.8450 C   0  0  0  0  0  0  0  0  0  0  0  0
    2.8034   -1.1219    5.4998 C   0  0  0  0  0  0  0  0  0  0  0  0
    2.3042    0.1024    4.8899 N   0  0  0  0  0  0  0  0  0  0  0  0
    2.7267    1.3498    5.3426 C   0  0  0  0  0  0  0  0  0  0  0  0
    2.1742    2.5461    4.8294 C   0  0  0  0  0  0  0  0  0  0  0  0
    2.6170    3.7856    5.2898 C   0  0  0  0  0  0  0  0  0  0  0  0
    3.6145    3.8875    6.2579 C   0  0  0  0  0  0  0  0  0  0  0  0
    4.1867    2.7174    6.7795 C   0  0  0  0  0  0  0  0  0  0  0  0
    3.7400    1.4738    6.3238 C   0  0  0  0  0  0  0  0  0  0  0  0
    5.2717    2.8029    7.8248 C   0  0  0  0  0  0  0  0  0  0  0  0
    1.1169   -0.0197    4.0677 C   0  0  0  0  0  0  0  0  0  0  0  0
    1.3437   -0.0000    2.5519 C   0  0  0  0  0  0  0  0  0  0  0  0
   -0.0000   -0.0000    1.8321 C   0  0  0  0  0  0  0  0  0  0  0  0
    0.0000    0.0000    0.0000 S   0  0  0  0  0  0  0  0  0  0  0  0
    2.5269    0.7349    1.9783 C   0  0  0  0  0  0  0  0  0  0  0  0
    2.5014   -0.7721    1.9773 C   0  0  0  0  0  0  0  0  0  0  0  0
    2.5693   -2.3978    7.2522 H   0  0  0  0  0  0  0  0  0  0  0  0
    1.0676   -1.5911    6.7335 H   0  0  0  0  0  0  0  0  0  0  0  0
    2.3236   -0.6614    7.5817 H   0  0  0  0  0  0  0  0  0  0  0  0
    2.6256   -1.9424    4.7889 H   0  0  0  0  0  0  0  0  0  0  0  0
    3.8976   -1.0563    5.6043 H   0  0  0  0  0  0  0  0  0  0  0  0
    1.4155    2.5158    4.0501 H   0  0  0  0  0  0  0  0  0  0  0  0
    2.1713    4.6921    4.8713 H   0  0  0  0  0  0  0  0  0  0  0  0
    3.9513    4.8666    6.6071 H   0  0  0  0  0  0  0  0  0  0  0  0
    4.1956    0.5832    6.7538 H   0  0  0  0  0  0  0  0  0  0  0  0
    6.1597    3.3263    7.4326 H   0  0  0  0  0  0  0  0  0  0  0  0
    5.5909    1.8066    8.1643 H   0  0  0  0  0  0  0  0  0  0  0  0
    4.9306    3.3688    8.7073 H   0  0  0  0  0  0  0  0  0  0  0  0
    0.3962    0.7721    4.3339 H   0  0  0  0  0  0  0  0  0  0  0  0
    0.6161   -0.9690    4.3243 H   0  0  0  0  0  0  0  0  0  0  0  0
   -0.5555   -0.9154    2.0969 H   0  0  0  0  0  0  0  0  0  0  0  0
   -0.6139    0.8471    2.1778 H   0  0  0  0  0  0  0  0  0  0  0  0
    0.3363    1.2992   -0.1657 H   0  0  0  0  0  0  0  0  0  0  0  0
    3.2050    1.2329    2.6728 H   0  0  0  0  0  0  0  0  0  0  0  0
    2.3995    1.2400    1.0177 H   0  0  0  0  0  0  0  0  0  0  0  0
    3.1716   -1.2873    2.6692 H   0  0  0  0  0  0  0  0  0  0  0  0
    2.3429   -1.2741    1.0192 H   0  0  0  0  0  0  0  0  0  0  0  0
  1 17  1  0  0  0  0
  1 19  1  0  0  0  0
  2 21  1  0  0  0  0
  2  1  1  0  0  0  0
  3  4  1  0  0  0  0
  3  2  1  0  0  0  0
  4  9  2  0  0  0  0
  5  6  2  0  0  0  0
  5  4  1  0  0  0  0
  6  7  1  0  0  0  0
  7 24  1  0  0  0  0
  7  8  2  0  0  0  0
  8 10  1  0  0  0  0
  9 25  1  0  0  0  0
  9  8  1  0  0  0  0
 10 27  1  0  0  0  0
 10 28  1  0  0  0  0
 11 30  1  0  0  0  0
 11 29  1  0  0  0  0
 11  3  1  0  0  0  0
 12 11  1  0  0  0  0
 13 31  1  0  0  0  0
 13 32  1  0  0  0  0
 13 12  1  0  0  0  0
 14 13  1  0  0  0  0
 15 12  1  0  0  0  0
 15 34  1  0  0  0  0
 16 15  1  0  0  0  0
 16 12  1  0  0  0  0
 16 36  1  0  0  0  0
 18  1  1  0  0  0  0
 20  2  1  0  0  0  0
 22  5  1  0  0  0  0
 23  6  1  0  0  0  0
 26 10  1  0  0  0  0
 33 14  1  0  0  0  0
 35 15  1  0  0  0  0
 37 16  1  0  0  0  0
M  END
