314457368.xyz
 OpenBabel08132112113D
SCC1(CCCC1)Cn1cc(Br)c(=O)[nH]c1=O
 32 33  0  0  0  0  0  0  0  0999 V2000
    0.0000    0.0000    0.0000 S   0  0  0  0  0  0  0  0  0  0  0  0
   -0.0000    0.0000    1.8448 C   0  0  0  0  0  0  0  0  0  0  0  0
    1.3910   -0.0000    2.5196 C   0  0  0  0  0  0  0  0  0  0  0  0
    2.1630    1.3218    2.3127 C   0  0  0  0  0  0  0  0  0  0  0  0
    2.8509    1.1844    0.9477 C   0  0  0  0  0  0  0  0  0  0  0  0
    3.1801   -0.3239    0.8122 C   0  0  0  0  0  0  0  0  0  0  0  0
    2.3518   -1.0509    1.9034 C   0  0  0  0  0  0  0  0  0  0  0  0
    1.0564   -0.2886    4.0076 C   0  0  0  0  0  0  0  0  0  0  0  0
    2.1475   -0.0831    4.9581 N   0  0  0  0  0  0  0  0  0  0  0  0
    3.0349   -1.0906    5.2529 C   0  0  0  0  0  0  0  0  0  0  0  0
    4.0918   -0.9282    6.0868 C   0  0  0  0  0  0  0  0  0  0  0  0
    5.2810   -2.3400    6.4634 Br  0  0  0  0  0  0  0  0  0  0  0  0
    4.3299    0.3656    6.7379 C   0  0  0  0  0  0  0  0  0  0  0  0
    5.2342    0.6478    7.4908 O   0  0  0  0  0  0  0  0  0  0  0  0
    3.3428    1.3090    6.4003 N   0  0  0  0  0  0  0  0  0  0  0  0
    2.2475    1.1761    5.5667 C   0  0  0  0  0  0  0  0  0  0  0  0
    1.4476    2.0671    5.3750 O   0  0  0  0  0  0  0  0  0  0  0  0
   -1.2988   -0.3558   -0.1224 H   0  0  0  0  0  0  0  0  0  0  0  0
   -0.5400   -0.9061    2.1604 H   0  0  0  0  0  0  0  0  0  0  0  0
   -0.5678    0.8733    2.1998 H   0  0  0  0  0  0  0  0  0  0  0  0
    2.9381    1.3996    3.0909 H   0  0  0  0  0  0  0  0  0  0  0  0
    1.5219    2.2095    2.4115 H   0  0  0  0  0  0  0  0  0  0  0  0
    3.7472    1.8186    0.8758 H   0  0  0  0  0  0  0  0  0  0  0  0
    2.1724    1.5058    0.1443 H   0  0  0  0  0  0  0  0  0  0  0  0
    2.9313   -0.6943   -0.1922 H   0  0  0  0  0  0  0  0  0  0  0  0
    4.2542   -0.5098    0.9640 H   0  0  0  0  0  0  0  0  0  0  0  0
    1.8005   -1.9192    1.5119 H   0  0  0  0  0  0  0  0  0  0  0  0
    3.0327   -1.4263    2.6811 H   0  0  0  0  0  0  0  0  0  0  0  0
    0.2431    0.3728    4.3309 H   0  0  0  0  0  0  0  0  0  0  0  0
    0.7143   -1.3295    4.1097 H   0  0  0  0  0  0  0  0  0  0  0  0
    2.8340   -2.0507    4.7780 H   0  0  0  0  0  0  0  0  0  0  0  0
    3.4377    2.2203    6.8425 H   0  0  0  0  0  0  0  0  0  0  0  0
  1  2  1  0  0  0  0
  2 19  1  0  0  0  0
  2 20  1  0  0  0  0
  2  3  1  0  0  0  0
  3  8  1  0  0  0  0
  4 22  1  0  0  0  0
  4  3  1  0  0  0  0
  4 21  1  0  0  0  0
  5  4  1  0  0  0  0
  6  5  1  0  0  0  0
  6 26  1  0  0  0  0
  6  7  1  0  0  0  0
  7  3  1  0  0  0  0
  7 28  1  0  0  0  0
  8 30  1  0  0  0  0
  8 29  1  0  0  0  0
  8  9  1  0  0  0  0
  9 10  1  0  0  0  0
  9 16  1  0  0  0  0
 10 11  2  0  0  0  0
 11 12  1  0  0  0  0
 11 13  1  0  0  0  0
 13 14  2  0  0  0  0
 15 13  1  0  0  0  0
 15 32  1  0  0  0  0
 16 15  1  0  0  0  0
 17 16  2  0  0  0  0
 18  1  1  0  0  0  0
 23  5  1  0  0  0  0
 24  5  1  0  0  0  0
 25  6  1  0  0  0  0
 27  7  1  0  0  0  0
 31 10  1  0  0  0  0
M  END
