314421439.xyz
 OpenBabel08132112113D
SCC(Cn1c(C)nc2c1CCCC2)(C)C
 38 39  0  0  1  0  0  0  0  0999 V2000
    0.0000    0.0000    0.0000 S   0  0  0  0  0  0  0  0  0  0  0  0
    0.0000   -0.0000    1.8357 C   0  0  0  0  0  0  0  0  0  0  0  0
    1.3747    0.0000    2.5367 C   0  0  0  0  0  0  0  0  0  0  0  0
    1.1463    0.0426    4.0749 C   0  0  0  0  0  0  0  0  0  0  0  0
    0.4238   -1.0671    4.6678 N   0  0  0  0  0  0  0  0  0  0  0  0
    0.9692   -2.2124    5.2266 C   0  0  0  0  0  0  0  0  0  0  0  0
    2.4337   -2.4859    5.3334 C   0  0  0  0  0  0  0  0  0  0  0  0
    0.0317   -3.0014    5.7113 N   0  0  0  0  0  0  0  0  0  0  0  0
   -1.1639   -2.3650    5.4827 C   0  0  0  0  0  0  0  0  0  0  0  0
   -0.9555   -1.1597    4.8506 C   0  0  1  0  0  0  0  0  0  0  0  0
   -2.0119   -0.1450    4.5458 C   0  0  0  0  0  0  0  0  0  0  0  0
   -3.2721   -0.4903    5.3617 C   0  0  0  0  0  0  0  0  0  0  0  0
   -3.6121   -1.9861    5.2787 C   0  0  0  0  0  0  0  0  0  0  0  0
   -2.5126   -2.8600    5.9057 C   0  0  0  0  0  0  0  0  0  0  0  0
    2.1630    1.2671    2.1755 C   0  0  0  0  0  0  0  0  0  0  0  0
    2.1732   -1.2441    2.1323 C   0  0  0  0  0  0  0  0  0  0  0  0
    0.3353    1.2988   -0.1692 H   0  0  0  0  0  0  0  0  0  0  0  0
   -0.6054    0.8510    2.1784 H   0  0  0  0  0  0  0  0  0  0  0  0
   -0.5478   -0.9153    2.1016 H   0  0  0  0  0  0  0  0  0  0  0  0
    2.1290    0.1069    4.5650 H   0  0  0  0  0  0  0  0  0  0  0  0
    0.6080    0.9703    4.3263 H   0  0  0  0  0  0  0  0  0  0  0  0
    2.9867   -1.6306    5.7564 H   0  0  0  0  0  0  0  0  0  0  0  0
    2.8976   -2.7336    4.3668 H   0  0  0  0  0  0  0  0  0  0  0  0
    2.5598   -3.3451    6.0042 H   0  0  0  0  0  0  0  0  0  0  0  0
   -1.6713    0.8780    4.7858 H   0  0  0  0  0  0  0  0  0  0  0  0
   -2.2688   -0.1354    3.4719 H   0  0  0  0  0  0  0  0  0  0  0  0
   -3.1060   -0.2163    6.4184 H   0  0  0  0  0  0  0  0  0  0  0  0
   -4.1197    0.1158    5.0043 H   0  0  0  0  0  0  0  0  0  0  0  0
   -4.5785   -2.1819    5.7698 H   0  0  0  0  0  0  0  0  0  0  0  0
   -3.7378   -2.2627    4.2164 H   0  0  0  0  0  0  0  0  0  0  0  0
   -2.6400   -3.9174    5.6202 H   0  0  0  0  0  0  0  0  0  0  0  0
   -2.5878   -2.8335    7.0087 H   0  0  0  0  0  0  0  0  0  0  0  0
    3.1206    1.3027    2.7189 H   0  0  0  0  0  0  0  0  0  0  0  0
    2.3897    1.2904    1.0998 H   0  0  0  0  0  0  0  0  0  0  0  0
    1.5973    2.1798    2.4272 H   0  0  0  0  0  0  0  0  0  0  0  0
    2.3042   -1.2689    1.0411 H   0  0  0  0  0  0  0  0  0  0  0  0
    3.1700   -1.2415    2.5988 H   0  0  0  0  0  0  0  0  0  0  0  0
    1.6513   -2.1659    2.4304 H   0  0  0  0  0  0  0  0  0  0  0  0
  1  2  1  0  0  0  0
  2 19  1  0  0  0  0
  2 18  1  0  0  0  0
  2  3  1  0  0  0  0
  3  4  1  0  0  0  0
  4 21  1  0  0  0  0
  4 20  1  0  0  0  0
  4  5  1  0  0  0  0
  5 10  1  0  0  0  0
  5  6  1  0  0  0  0
  6  7  1  0  0  0  0
  6  8  2  0  0  0  0
  7 22  1  0  0  0  0
  7 24  1  0  0  0  0
  9  8  2  0  0  0  0
  9 14  1  0  0  0  0
 10  9  1  1  0  0  0
 11 25  1  0  0  0  0
 11 10  1  0  0  0  0
 11 12  1  0  0  0  0
 12 27  1  0  0  0  0
 13 12  1  0  0  0  0
 13 29  1  0  0  0  0
 13 14  1  0  0  0  0
 14 32  1  0  0  0  0
 15 35  1  0  0  0  0
 15  3  1  0  0  0  0
 15 33  1  0  0  0  0
 16 38  1  0  0  0  0
 16  3  1  0  0  0  0
 16 37  1  0  0  0  0
 17  1  1  0  0  0  0
 23  7  1  0  0  0  0
 26 11  1  0  0  0  0
 28 12  1  0  0  0  0
 30 13  1  0  0  0  0
 31 14  1  0  0  0  0
 34 15  1  0  0  0  0
 36 16  1  0  0  0  0
M  RAD  1  10   2
M  END
