314446483.xyz
 OpenBabel08132112113D
CCC1(CC)OCCC(C1)n1c(C)nnc1S
 38 39  0  0  1  0  0  0  0  0999 V2000
    3.8632    2.1574   -0.8086 C   0  0  0  0  0  0  0  0  0  0  0  0
    4.6771    1.2707    0.1329 C   0  0  0  0  0  0  0  0  0  0  0  0
    4.5516    1.5650    1.6440 C   0  0  0  0  0  0  0  0  0  0  0  0
    5.1745    2.9314    1.9858 C   0  0  0  0  0  0  0  0  0  0  0  0
    5.2974    3.2284    3.4788 C   0  0  0  0  0  0  0  0  0  0  0  0
    5.3577    0.5600    2.2984 O   0  0  0  0  0  0  0  0  0  0  0  0
    4.7035   -0.3324    3.1734 C   0  0  0  0  0  0  0  0  0  0  0  0
    3.4862   -0.9870    2.5236 C   0  0  0  0  0  0  0  0  0  0  0  0
    2.5134    0.0785    1.9587 C   0  0  2  0  0  0  0  0  0  0  0  0
    3.0924    1.4885    2.1206 C   0  0  0  0  0  0  0  0  0  0  0  0
    1.1579    0.0000    2.5047 N   0  0  0  0  0  0  0  0  0  0  0  0
    0.7106    0.0338    3.8173 C   0  0  0  0  0  0  0  0  0  0  0  0
    1.5627    0.0667    5.0393 C   0  0  0  0  0  0  0  0  0  0  0  0
   -0.6008    0.0344    3.8348 N   0  0  0  0  0  0  0  0  0  0  0  0
   -1.0550    0.0135    2.5387 N   0  0  0  0  0  0  0  0  0  0  0  0
   -0.0000    0.0000    1.7644 C   0  0  0  0  0  0  0  0  0  0  0  0
    0.0000    0.0000    0.0000 S   0  0  0  0  0  0  0  0  0  0  0  0
    4.0798    1.9025   -1.8575 H   0  0  0  0  0  0  0  0  0  0  0  0
    2.7782    2.0317   -0.6644 H   0  0  0  0  0  0  0  0  0  0  0  0
    4.0976    3.2253   -0.6779 H   0  0  0  0  0  0  0  0  0  0  0  0
    5.7495    1.3392   -0.1109 H   0  0  0  0  0  0  0  0  0  0  0  0
    4.4110    0.2138   -0.0319 H   0  0  0  0  0  0  0  0  0  0  0  0
    6.1796    2.9496    1.5329 H   0  0  0  0  0  0  0  0  0  0  0  0
    4.5917    3.7241    1.4884 H   0  0  0  0  0  0  0  0  0  0  0  0
    4.3171    3.3235    3.9723 H   0  0  0  0  0  0  0  0  0  0  0  0
    5.8605    2.4292    3.9833 H   0  0  0  0  0  0  0  0  0  0  0  0
    5.8336    4.1755    3.6434 H   0  0  0  0  0  0  0  0  0  0  0  0
    4.4110    0.1751    4.1127 H   0  0  0  0  0  0  0  0  0  0  0  0
    5.4479   -1.0966    3.4433 H   0  0  0  0  0  0  0  0  0  0  0  0
    3.8303   -1.6317    1.7010 H   0  0  0  0  0  0  0  0  0  0  0  0
    2.9738   -1.6425    3.2419 H   0  0  0  0  0  0  0  0  0  0  0  0
    2.3921   -0.1160    0.8856 H   0  0  0  0  0  0  0  0  0  0  0  0
    2.4779    2.2089    1.5634 H   0  0  0  0  0  0  0  0  0  0  0  0
    3.0337    1.7838    3.1762 H   0  0  0  0  0  0  0  0  0  0  0  0
    0.8915    0.1592    5.9026 H   0  0  0  0  0  0  0  0  0  0  0  0
    2.1600   -0.8501    5.1624 H   0  0  0  0  0  0  0  0  0  0  0  0
    2.2571    0.9213    5.0438 H   0  0  0  0  0  0  0  0  0  0  0  0
   -1.3506    0.0320   -0.0498 H   0  0  0  0  0  0  0  0  0  0  0  0
  1 20  1  0  0  0  0
  1 19  1  0  0  0  0
  1  2  1  0  0  0  0
  2  3  1  0  0  0  0
  3  4  1  0  0  0  0
  3 10  1  0  0  0  0
  3  6  1  0  0  0  0
  4  5  1  0  0  0  0
  5 27  1  0  0  0  0
  5 25  1  0  0  0  0
  5 26  1  0  0  0  0
  6  7  1  0  0  0  0
  7 29  1  0  0  0  0
  7 28  1  0  0  0  0
  8  7  1  0  0  0  0
  8 31  1  0  0  0  0
  9 32  1  6  0  0  0
  9 10  1  0  0  0  0
  9 11  1  0  0  0  0
  9  8  1  0  0  0  0
 10 34  1  0  0  0  0
 11 12  1  0  0  0  0
 12 14  2  0  0  0  0
 12 13  1  0  0  0  0
 13 37  1  0  0  0  0
 13 36  1  0  0  0  0
 13 35  1  0  0  0  0
 15 14  1  0  0  0  0
 16 11  1  0  0  0  0
 16 15  2  0  0  0  0
 17 16  1  0  0  0  0
 18  1  1  0  0  0  0
 21  2  1  0  0  0  0
 22  2  1  0  0  0  0
 23  4  1  0  0  0  0
 24  4  1  0  0  0  0
 30  8  1  0  0  0  0
 33 10  1  0  0  0  0
 38 17  1  0  0  0  0
M  END
