314679060.xyz
 OpenBabel08132112113D
SCC1(CCCC1)CN1C(=O)CC(CC1=O)(C)C
 41 42  0  0  0  0  0  0  0  0999 V2000
    0.0000    0.0000    0.0000 S   0  0  0  0  0  0  0  0  0  0  0  0
   -0.0000   -0.0000    1.8367 C   0  0  0  0  0  0  0  0  0  0  0  0
    1.3761    0.0000    2.5403 C   0  0  0  0  0  0  0  0  0  0  0  0
    1.1409    0.2229    4.0525 C   0  0  0  0  0  0  0  0  0  0  0  0
    0.8628    1.7338    4.2001 C   0  0  0  0  0  0  0  0  0  0  0  0
    1.5305    2.4042    2.9650 C   0  0  0  0  0  0  0  0  0  0  0  0
    2.1934    1.2569    2.1789 C   0  0  0  0  0  0  0  0  0  0  0  0
    2.0731   -1.3282    2.1881 C   0  0  0  0  0  0  0  0  0  0  0  0
    3.2947   -1.6141    2.9482 N   0  0  0  0  0  0  0  0  0  0  0  0
    3.1625   -2.3783    4.1196 C   0  0  0  0  0  0  0  0  0  0  0  0
    2.0778   -2.7850    4.4784 O   0  0  0  0  0  0  0  0  0  0  0  0
    4.4216   -2.6353    4.9202 C   0  0  0  0  0  0  0  0  0  0  0  0
    5.6910   -2.7875    4.0725 C   0  0  0  0  0  0  0  0  0  0  0  0
    5.7716   -1.5359    3.1892 C   0  0  0  0  0  0  0  0  0  0  0  0
    4.5273   -1.2675    2.3687 C   0  0  0  0  0  0  0  0  0  0  0  0
    4.5784   -0.7514    1.2734 O   0  0  0  0  0  0  0  0  0  0  0  0
    6.9229   -2.8707    4.9804 C   0  0  0  0  0  0  0  0  0  0  0  0
    5.6042   -4.0519    3.2018 C   0  0  0  0  0  0  0  0  0  0  0  0
    0.3557   -1.2924   -0.1747 H   0  0  0  0  0  0  0  0  0  0  0  0
   -0.5584    0.9105    2.0936 H   0  0  0  0  0  0  0  0  0  0  0  0
   -0.6035   -0.8487    2.1925 H   0  0  0  0  0  0  0  0  0  0  0  0
    0.3505   -0.4213    4.4647 H   0  0  0  0  0  0  0  0  0  0  0  0
    2.0668   -0.0308    4.5899 H   0  0  0  0  0  0  0  0  0  0  0  0
    1.2603    2.1207    5.1504 H   0  0  0  0  0  0  0  0  0  0  0  0
   -0.2196    1.9355    4.2175 H   0  0  0  0  0  0  0  0  0  0  0  0
    0.7759    2.9137    2.3454 H   0  0  0  0  0  0  0  0  0  0  0  0
    2.2621    3.1743    3.2519 H   0  0  0  0  0  0  0  0  0  0  0  0
    2.2361    1.4261    1.0939 H   0  0  0  0  0  0  0  0  0  0  0  0
    3.2295    1.1164    2.5199 H   0  0  0  0  0  0  0  0  0  0  0  0
    1.3826   -2.1596    2.3784 H   0  0  0  0  0  0  0  0  0  0  0  0
    2.3531   -1.3136    1.1289 H   0  0  0  0  0  0  0  0  0  0  0  0
    4.2244   -3.5208    5.5405 H   0  0  0  0  0  0  0  0  0  0  0  0
    4.5391   -1.7806    5.6109 H   0  0  0  0  0  0  0  0  0  0  0  0
    5.9317   -0.6456    3.8243 H   0  0  0  0  0  0  0  0  0  0  0  0
    6.6115   -1.5772    2.4816 H   0  0  0  0  0  0  0  0  0  0  0  0
    7.8449   -2.9544    4.3834 H   0  0  0  0  0  0  0  0  0  0  0  0
    6.8656   -3.7515    5.6395 H   0  0  0  0  0  0  0  0  0  0  0  0
    7.0115   -1.9759    5.6172 H   0  0  0  0  0  0  0  0  0  0  0  0
    6.5034   -4.1540    2.5746 H   0  0  0  0  0  0  0  0  0  0  0  0
    4.7305   -4.0349    2.5313 H   0  0  0  0  0  0  0  0  0  0  0  0
    5.5242   -4.9520    3.8309 H   0  0  0  0  0  0  0  0  0  0  0  0
  1  2  1  0  0  0  0
  2 20  1  0  0  0  0
  2 21  1  0  0  0  0
  2  3  1  0  0  0  0
  3  4  1  0  0  0  0
  4  5  1  0  0  0  0
  4 22  1  0  0  0  0
  4 23  1  0  0  0  0
  5 25  1  0  0  0  0
  5 24  1  0  0  0  0
  6 27  1  0  0  0  0
  6  5  1  0  0  0  0
  7 29  1  0  0  0  0
  7  3  1  0  0  0  0
  7  6  1  0  0  0  0
  8 30  1  0  0  0  0
  8  3  1  0  0  0  0
  8  9  1  0  0  0  0
  9 10  1  0  0  0  0
 10 11  2  0  0  0  0
 10 12  1  0  0  0  0
 12 32  1  0  0  0  0
 12 33  1  0  0  0  0
 13 12  1  0  0  0  0
 13 17  1  0  0  0  0
 14 34  1  0  0  0  0
 14 13  1  0  0  0  0
 15  9  1  0  0  0  0
 15 14  1  0  0  0  0
 16 15  2  0  0  0  0
 17 38  1  0  0  0  0
 17 37  1  0  0  0  0
 18 41  1  0  0  0  0
 18 13  1  0  0  0  0
 19  1  1  0  0  0  0
 26  6  1  0  0  0  0
 28  7  1  0  0  0  0
 31  8  1  0  0  0  0
 35 14  1  0  0  0  0
 36 17  1  0  0  0  0
 39 18  1  0  0  0  0
 40 18  1  0  0  0  0
M  END
