314765787.xyz
 OpenBabel08132112113D
CCN(C(=O)C(n1c(S)nnc1C1CC1)C)CC
 38 39  0  0  1  0  0  0  0  0999 V2000
    4.5721   -2.4882   -0.9625 C   0  0  0  0  0  0  0  0  0  0  0  0
    4.5592   -2.7410    0.5434 C   0  0  0  0  0  0  0  0  0  0  0  0
    4.2348   -1.5499    1.3398 N   0  0  0  0  0  0  0  0  0  0  0  0
    2.9178   -1.1861    1.3739 C   0  0  0  0  0  0  0  0  0  0  0  0
    2.0610   -1.8274    0.7851 O   0  0  0  0  0  0  0  0  0  0  0  0
    2.5287    0.0775    2.1669 C   0  0  2  0  0  0  0  0  0  0  0  0
    1.1297    0.0000    2.5670 N   0  0  0  0  0  0  0  0  0  0  0  0
    0.0000   -0.0000    1.7660 C   0  0  0  0  0  0  0  0  0  0  0  0
    0.0000    0.0000    0.0000 S   0  0  0  0  0  0  0  0  0  0  0  0
   -1.0804    0.0034    2.5061 N   0  0  0  0  0  0  0  0  0  0  0  0
   -0.6881   -0.0034    3.8169 N   0  0  0  0  0  0  0  0  0  0  0  0
    0.6242   -0.0187    3.8583 C   0  0  0  0  0  0  0  0  0  0  0  0
    1.3462   -0.0818    5.1480 C   0  0  0  0  0  0  0  0  0  0  0  0
    2.6334    0.6416    5.4815 C   0  0  0  0  0  0  0  0  0  0  0  0
    2.6192   -0.8616    5.3935 C   0  0  0  0  0  0  0  0  0  0  0  0
    2.8436    1.3730    1.4059 C   0  0  0  0  0  0  0  0  0  0  0  0
    5.3342   -0.8902    2.0354 C   0  0  0  0  0  0  0  0  0  0  0  0
    6.3475   -0.2200    1.1077 C   0  0  0  0  0  0  0  0  0  0  0  0
    5.3119   -1.7225   -1.2412 H   0  0  0  0  0  0  0  0  0  0  0  0
    4.8208   -3.4170   -1.4999 H   0  0  0  0  0  0  0  0  0  0  0  0
    3.5784   -2.1575   -1.2954 H   0  0  0  0  0  0  0  0  0  0  0  0
    3.8126   -3.5148    0.7751 H   0  0  0  0  0  0  0  0  0  0  0  0
    5.5389   -3.1060    0.8885 H   0  0  0  0  0  0  0  0  0  0  0  0
    3.0990    0.0895    3.0958 H   0  0  0  0  0  0  0  0  0  0  0  0
   -1.0844    0.8110   -0.0587 H   0  0  0  0  0  0  0  0  0  0  0  0
    0.6030   -0.1174    5.9478 H   0  0  0  0  0  0  0  0  0  0  0  0
    3.1313    1.2196    4.6983 H   0  0  0  0  0  0  0  0  0  0  0  0
    2.7039    1.1024    6.4700 H   0  0  0  0  0  0  0  0  0  0  0  0
    3.1014   -1.3507    4.5429 H   0  0  0  0  0  0  0  0  0  0  0  0
    2.6844   -1.4372    6.3203 H   0  0  0  0  0  0  0  0  0  0  0  0
    2.5418    2.2391    2.0135 H   0  0  0  0  0  0  0  0  0  0  0  0
    3.9202    1.4495    1.2007 H   0  0  0  0  0  0  0  0  0  0  0  0
    2.2998    1.4083    0.4534 H   0  0  0  0  0  0  0  0  0  0  0  0
    5.8498   -1.6425    2.6590 H   0  0  0  0  0  0  0  0  0  0  0  0
    4.9312   -0.1484    2.7349 H   0  0  0  0  0  0  0  0  0  0  0  0
    7.1291    0.2808    1.7001 H   0  0  0  0  0  0  0  0  0  0  0  0
    5.8632    0.5314    0.4656 H   0  0  0  0  0  0  0  0  0  0  0  0
    6.8426   -0.9530    0.4538 H   0  0  0  0  0  0  0  0  0  0  0  0
  1  2  1  0  0  0  0
  2 22  1  0  0  0  0
  2 23  1  0  0  0  0
  2  3  1  0  0  0  0
  3  4  1  0  0  0  0
  3 17  1  0  0  0  0
  4  6  1  0  0  0  0
  5  4  2  0  0  0  0
  6  7  1  0  0  0  0
  6 24  1  1  0  0  0
  7 12  1  0  0  0  0
  8 10  2  0  0  0  0
  8  7  1  0  0  0  0
  9  8  1  0  0  0  0
 10 11  1  0  0  0  0
 11 12  2  0  0  0  0
 12 13  1  0  0  0  0
 13 15  1  0  0  0  0
 13 14  1  0  0  0  0
 13 26  1  0  0  0  0
 14 28  1  0  0  0  0
 15 14  1  0  0  0  0
 15 30  1  0  0  0  0
 16 31  1  0  0  0  0
 16  6  1  0  0  0  0
 17 34  1  0  0  0  0
 17 35  1  0  0  0  0
 18 36  1  0  0  0  0
 18 17  1  0  0  0  0
 19  1  1  0  0  0  0
 20  1  1  0  0  0  0
 21  1  1  0  0  0  0
 25  9  1  0  0  0  0
 27 14  1  0  0  0  0
 29 15  1  0  0  0  0
 32 16  1  0  0  0  0
 33 16  1  0  0  0  0
 37 18  1  0  0  0  0
 38 18  1  0  0  0  0
M  END
