314798090.xyz
 OpenBabel08132112113D
Sc1ncc(n1C1CCS(=O)(=O)CC1)C(C)(C)C
 38 39  0  0  1  0  0  0  0  0999 V2000
    0.0000    0.0000    0.0000 S   0  0  0  0  0  0  0  0  0  0  0  0
   -0.0000    0.0000    1.7743 C   0  0  0  0  0  0  0  0  0  0  0  0
    1.0838    0.0000    2.5085 N   0  0  0  0  0  0  0  0  0  0  0  0
    0.6421    0.0077    3.8113 C   0  0  0  0  0  0  0  0  0  0  0  0
   -0.7352    0.0089    3.8775 C   0  0  1  0  0  0  0  0  0  0  0  0
   -1.1495    0.0037    2.5344 N   0  0  0  0  0  0  0  0  0  0  0  0
   -2.5202    0.0357    2.0440 C   0  0  0  0  0  0  0  0  0  0  0  0
   -2.8868   -1.1973    1.1953 C   0  0  0  0  0  0  0  0  0  0  0  0
   -4.4084   -1.3958    1.1097 C   0  0  0  0  0  0  0  0  0  0  0  0
   -5.3201    0.1897    1.1248 S   0  0  0  0  0  0  0  0  0  0  0  0
   -5.5094    0.5743    2.5370 O   0  0  0  0  0  0  0  0  0  0  0  0
   -6.4634    0.1031    0.2109 O   0  0  0  0  0  0  0  0  0  0  0  0
   -4.0695    1.3002    0.4323 C   0  0  0  0  0  0  0  0  0  0  0  0
   -2.8358    1.3747    1.3364 C   0  0  0  0  0  0  0  0  0  0  0  0
   -1.6484   -0.0018    5.0911 C   0  0  0  0  0  0  0  0  0  0  0  0
   -2.5767    1.2356    5.1313 C   0  0  0  0  0  0  0  0  0  0  0  0
   -0.7605    0.0399    6.3499 C   0  0  0  0  0  0  0  0  0  0  0  0
   -2.4847   -1.3008    5.1494 C   0  0  0  0  0  0  0  0  0  0  0  0
    1.3474    0.0877   -0.0473 H   0  0  0  0  0  0  0  0  0  0  0  0
    1.3468    0.0109    4.6389 H   0  0  0  0  0  0  0  0  0  0  0  0
   -3.1540   -0.0098    2.9299 H   0  0  0  0  0  0  0  0  0  0  0  0
   -2.4340   -2.0902    1.6507 H   0  0  0  0  0  0  0  0  0  0  0  0
   -2.4620   -1.1136    0.1844 H   0  0  0  0  0  0  0  0  0  0  0  0
   -4.7192   -1.9205    0.1968 H   0  0  0  0  0  0  0  0  0  0  0  0
   -4.8166   -1.9195    1.9866 H   0  0  0  0  0  0  0  0  0  0  0  0
   -4.5823    2.2656    0.3177 H   0  0  0  0  0  0  0  0  0  0  0  0
   -3.8505    0.9054   -0.5707 H   0  0  0  0  0  0  0  0  0  0  0  0
   -2.9770    2.1433    2.1086 H   0  0  0  0  0  0  0  0  0  0  0  0
   -1.9789    1.6835    0.7203 H   0  0  0  0  0  0  0  0  0  0  0  0
   -3.1008    1.2746    6.0992 H   0  0  0  0  0  0  0  0  0  0  0  0
   -1.9910    2.1614    5.0242 H   0  0  0  0  0  0  0  0  0  0  0  0
   -3.3543    1.2259    4.3545 H   0  0  0  0  0  0  0  0  0  0  0  0
   -1.3926    0.0242    7.2505 H   0  0  0  0  0  0  0  0  0  0  0  0
   -0.1501    0.9548    6.3791 H   0  0  0  0  0  0  0  0  0  0  0  0
   -0.0849   -0.8271    6.3952 H   0  0  0  0  0  0  0  0  0  0  0  0
   -3.0820   -1.3247    6.0745 H   0  0  0  0  0  0  0  0  0  0  0  0
   -1.8280   -2.1840    5.1399 H   0  0  0  0  0  0  0  0  0  0  0  0
   -3.1890   -1.3921    4.3101 H   0  0  0  0  0  0  0  0  0  0  0  0
  1  2  1  0  0  0  0
  2  3  2  0  0  0  0
  2  6  1  0  0  0  0
  3  4  2  0  0  0  0
  4  5  1  0  0  0  0
  4 20  1  0  0  0  0
  5 15  1  1  0  0  0
  6  5  1  0  0  0  0
  7  6  1  0  0  0  0
  7 21  1  0  0  0  0
  8 22  1  0  0  0  0
  8  7  1  0  0  0  0
  9 10  1  0  0  0  0
  9  8  1  0  0  0  0
  9 25  1  0  0  0  0
 10 11  2  0  0  0  0
 12 10  2  0  0  0  0
 13 10  1  0  0  0  0
 13 14  1  0  0  0  0
 14  7  1  0  0  0  0
 14 28  1  0  0  0  0
 15 16  1  0  0  0  0
 15 18  1  0  0  0  0
 15 17  1  0  0  0  0
 16 30  1  0  0  0  0
 17 34  1  0  0  0  0
 17 35  1  0  0  0  0
 17 33  1  0  0  0  0
 18 36  1  0  0  0  0
 19  1  1  0  0  0  0
 23  8  1  0  0  0  0
 24  9  1  0  0  0  0
 26 13  1  0  0  0  0
 27 13  1  0  0  0  0
 29 14  1  0  0  0  0
 31 16  1  0  0  0  0
 32 16  1  0  0  0  0
 37 18  1  0  0  0  0
 38 18  1  0  0  0  0
M  RAD  1   5   2
M  END
