314771466.xyz
 OpenBabel08132112113D
Cc1cn(c(n1)S)Cc1ccc(cc1)C(F)(F)F
 29 30  0  0  0  0  0  0  0  0999 V2000
    1.4772   -0.0229    5.0265 C   0  0  0  0  0  0  0  0  0  0  0  0
    0.5624   -0.0266    3.8454 C   0  0  0  0  0  0  0  0  0  0  0  0
   -0.8140   -0.0491    3.8185 C   0  0  0  0  0  0  0  0  0  0  0  0
   -1.1739   -0.0165    2.4751 N   0  0  0  0  0  0  0  0  0  0  0  0
   -0.0000   -0.0000    1.7677 C   0  0  0  0  0  0  0  0  0  0  0  0
    1.0520   -0.0000    2.5527 N   0  0  0  0  0  0  0  0  0  0  0  0
    0.0000    0.0000    0.0000 S   0  0  0  0  0  0  0  0  0  0  0  0
   -2.5102   -0.1005    1.9308 C   0  0  0  0  0  0  0  0  0  0  0  0
   -2.9193   -1.4960    1.4938 C   0  0  0  0  0  0  0  0  0  0  0  0
   -2.1838   -2.6265    1.8647 C   0  0  0  0  0  0  0  0  0  0  0  0
   -2.5924   -3.8992    1.4623 C   0  0  0  0  0  0  0  0  0  0  0  0
   -3.7423   -4.0520    0.6840 C   0  0  0  0  0  0  0  0  0  0  0  0
   -4.4803   -2.9253    0.3023 C   0  0  0  0  0  0  0  0  0  0  0  0
   -4.0668   -1.6579    0.7046 C   0  0  0  0  0  0  0  0  0  0  0  0
   -4.2187   -5.4261    0.2922 C   0  0  0  0  0  0  0  0  0  0  0  0
   -5.1182   -5.9065    1.1736 F   0  0  0  0  0  0  0  0  0  0  0  0
   -4.8188   -5.4214   -0.9117 F   0  0  0  0  0  0  0  0  0  0  0  0
   -3.2099   -6.3124    0.2399 F   0  0  0  0  0  0  0  0  0  0  0  0
    2.1660   -0.8825    4.9911 H   0  0  0  0  0  0  0  0  0  0  0  0
    2.0988    0.8872    5.0387 H   0  0  0  0  0  0  0  0  0  0  0  0
    0.9119   -0.0688    5.9687 H   0  0  0  0  0  0  0  0  0  0  0  0
   -1.5619   -0.0779    4.6065 H   0  0  0  0  0  0  0  0  0  0  0  0
    1.3158    0.2978   -0.0639 H   0  0  0  0  0  0  0  0  0  0  0  0
   -3.2086    0.2709    2.6976 H   0  0  0  0  0  0  0  0  0  0  0  0
   -2.5871    0.5927    1.0770 H   0  0  0  0  0  0  0  0  0  0  0  0
   -1.2807   -2.5137    2.4665 H   0  0  0  0  0  0  0  0  0  0  0  0
   -2.0094   -4.7762    1.7472 H   0  0  0  0  0  0  0  0  0  0  0  0
   -5.3693   -3.0429   -0.3195 H   0  0  0  0  0  0  0  0  0  0  0  0
   -4.6406   -0.7802    0.3946 H   0  0  0  0  0  0  0  0  0  0  0  0
  1 20  1  0  0  0  0
  1 21  1  0  0  0  0
  2  1  1  0  0  0  0
  3  2  1  0  0  0  0
  3 22  1  0  0  0  0
  4  3  1  0  0  0  0
  5  4  1  0  0  0  0
  5  6  2  0  0  0  0
  6  2  2  0  0  0  0
  7  5  1  0  0  0  0
  8  4  1  0  0  0  0
  8 24  1  0  0  0  0
  9 10  1  0  0  0  0
  9  8  1  0  0  0  0
 10 26  1  0  0  0  0
 11 27  1  0  0  0  0
 11 10  2  0  0  0  0
 12 11  1  0  0  0  0
 13 12  2  0  0  0  0
 13 14  1  0  0  0  0
 14  9  2  0  0  0  0
 15 12  1  0  0  0  0
 15 16  1  0  0  0  0
 17 15  1  0  0  0  0
 18 15  1  0  0  0  0
 19  1  1  0  0  0  0
 23  7  1  0  0  0  0
 25  8  1  0  0  0  0
 28 13  1  0  0  0  0
 29 14  1  0  0  0  0
M  RAD  1   3   2
M  END
