314798196.xyz
 OpenBabel08132112113D
[O-][N+](=O)c1cn(nc1)CCCCS
 24 24  0  0  0  0  0  0  0  0999 V2000
    6.7796    2.3582   -0.8541 O   0  0  0  0  0  0  0  0  0  0  0  0
    6.3513    1.2143   -0.7968 N   0  0  0  0  0  0  0  0  0  0  0  0
    6.5064    0.3534   -1.6533 O   0  0  0  0  0  0  0  0  0  0  0  0
    5.6035    0.8523    0.3731 C   0  0  0  0  0  0  0  0  0  0  0  0
    5.0376   -0.3884    0.6327 C   0  0  0  0  0  0  0  0  0  0  0  0
    4.4574   -0.2703    1.8458 N   0  0  0  0  0  0  0  0  0  0  0  0
    4.6049    0.9642    2.3797 N   0  0  0  0  0  0  0  0  0  0  0  0
    5.3055    1.6598    1.4952 C   0  0  0  0  0  0  0  0  0  0  0  0
    3.6554   -1.2705    2.5400 C   0  0  0  0  0  0  0  0  0  0  0  0
    2.1979   -1.2935    2.0781 C   0  0  0  0  0  0  0  0  0  0  0  0
    1.4345    0.0000    2.3699 C   0  0  0  0  0  0  0  0  0  0  0  0
   -0.0000    0.0000    1.8447 C   0  0  0  0  0  0  0  0  0  0  0  0
    0.0000    0.0000    0.0000 S   0  0  0  0  0  0  0  0  0  0  0  0
    5.0240   -1.3000    0.0420 H   0  0  0  0  0  0  0  0  0  0  0  0
    5.5830    2.6969    1.6686 H   0  0  0  0  0  0  0  0  0  0  0  0
    4.1271   -2.2504    2.3744 H   0  0  0  0  0  0  0  0  0  0  0  0
    3.7321   -1.0306    3.6097 H   0  0  0  0  0  0  0  0  0  0  0  0
    1.6996   -2.1407    2.5807 H   0  0  0  0  0  0  0  0  0  0  0  0
    2.1641   -1.5154    0.9987 H   0  0  0  0  0  0  0  0  0  0  0  0
    1.9786    0.8620    1.9509 H   0  0  0  0  0  0  0  0  0  0  0  0
    1.4052    0.1679    3.4604 H   0  0  0  0  0  0  0  0  0  0  0  0
   -0.5437   -0.8873    2.2057 H   0  0  0  0  0  0  0  0  0  0  0  0
   -0.5297    0.8956    2.2007 H   0  0  0  0  0  0  0  0  0  0  0  0
   -1.3339   -0.1565   -0.1560 H   0  0  0  0  0  0  0  0  0  0  0  0
  1  2  2  0  0  0  0
  2  4  1  0  0  0  0
  3  2  2  0  0  0  0
  4  5  2  0  0  0  0
  4  8  1  0  0  0  0
  5  6  1  0  0  0  0
  6  7  1  0  0  0  0
  6  9  1  0  0  0  0
  8 15  1  0  0  0  0
  8  7  2  0  0  0  0
  9 17  1  0  0  0  0
 10 11  1  0  0  0  0
 10  9  1  0  0  0  0
 10 18  1  0  0  0  0
 11 21  1  0  0  0  0
 12 23  1  0  0  0  0
 12 22  1  0  0  0  0
 12 11  1  0  0  0  0
 13 12  1  0  0  0  0
 14  5  1  0  0  0  0
 16  9  1  0  0  0  0
 19 10  1  0  0  0  0
 20 11  1  0  0  0  0
 24 13  1  0  0  0  0
M  END
