314898794.xyz
 OpenBabel08132112113D
CC(n1c(S)nc2c1cc(Cl)cc2)COCC
 32 33  0  0  1  0  0  0  0  0999 V2000
   -2.9858   -0.9466    1.1012 C   0  0  0  0  0  0  0  0  0  0  0  0
   -2.5567    0.1468    2.0777 C   0  0  1  0  0  0  0  0  0  0  0  0
   -1.1660    0.0155    2.5184 N   0  0  0  0  0  0  0  0  0  0  0  0
   -0.0000   -0.0000    1.7667 C   0  0  0  0  0  0  0  0  0  0  0  0
    0.0000    0.0000    0.0000 S   0  0  0  0  0  0  0  0  0  0  0  0
    1.0939   -0.0000    2.4852 N   0  0  0  0  0  0  0  0  0  0  0  0
    0.6661    0.0404    3.8005 C   0  0  0  0  0  0  0  0  0  0  0  0
   -0.7513    0.0672    3.8451 C   0  0  0  0  0  0  0  0  0  0  0  0
   -1.4610    0.1368    5.0452 C   0  0  0  0  0  0  0  0  0  0  0  0
   -0.6979    0.1652    6.2126 C   0  0  2  0  0  0  0  0  0  0  0  0
   -1.5241    0.2591    7.7556 Cl  0  0  0  0  0  0  0  0  0  0  0  0
    0.7105    0.1279    6.1996 C   0  0  0  0  0  0  0  0  0  0  0  0
    1.4025    0.0670    4.9923 C   0  0  0  0  0  0  0  0  0  0  0  0
   -2.8177    1.5610    1.5616 C   0  0  0  0  0  0  0  0  0  0  0  0
   -2.5467    2.4501    2.6068 O   0  0  0  0  0  0  0  0  0  0  0  0
   -2.4935    3.8103    2.2355 C   0  0  0  0  0  0  0  0  0  0  0  0
   -2.1389    4.6307    3.4596 C   0  0  0  0  0  0  0  0  0  0  0  0
   -2.4936   -0.8552    0.1225 H   0  0  0  0  0  0  0  0  0  0  0  0
   -4.0724   -0.8914    0.9371 H   0  0  0  0  0  0  0  0  0  0  0  0
   -2.7477   -1.9390    1.5102 H   0  0  0  0  0  0  0  0  0  0  0  0
   -3.1530    0.0360    2.9942 H   0  0  0  0  0  0  0  0  0  0  0  0
    1.3486    0.0792   -0.0434 H   0  0  0  0  0  0  0  0  0  0  0  0
   -2.5478    0.1884    5.0928 H   0  0  0  0  0  0  0  0  0  0  0  0
    1.2469    0.1531    7.1488 H   0  0  0  0  0  0  0  0  0  0  0  0
    2.4931    0.0444    4.9656 H   0  0  0  0  0  0  0  0  0  0  0  0
   -3.8720    1.6380    1.2224 H   0  0  0  0  0  0  0  0  0  0  0  0
   -2.1747    1.7670    0.6824 H   0  0  0  0  0  0  0  0  0  0  0  0
   -1.7384    3.9539    1.4352 H   0  0  0  0  0  0  0  0  0  0  0  0
   -3.4698    4.1325    1.8163 H   0  0  0  0  0  0  0  0  0  0  0  0
   -2.0843    5.7007    3.2065 H   0  0  0  0  0  0  0  0  0  0  0  0
   -1.1655    4.3134    3.8635 H   0  0  0  0  0  0  0  0  0  0  0  0
   -2.8960    4.4946    4.2469 H   0  0  0  0  0  0  0  0  0  0  0  0
  1 20  1  0  0  0  0
  1  2  1  0  0  0  0
  2  3  1  0  0  0  0
  2 21  1  1  0  0  0
  3  8  1  0  0  0  0
  4  6  2  0  0  0  0
  4  3  1  0  0  0  0
  5  4  1  0  0  0  0
  6  7  2  0  0  0  0
  7  8  1  0  0  0  0
  7 13  1  0  0  0  0
  8  9  2  0  0  0  0
  9 23  1  0  0  0  0
  9 10  1  0  0  0  0
 10 11  1  6  0  0  0
 12 10  1  0  0  0  0
 12 24  1  0  0  0  0
 13 12  2  0  0  0  0
 14  2  1  0  0  0  0
 14 15  1  0  0  0  0
 16 15  1  0  0  0  0
 16 17  1  0  0  0  0
 17 31  1  0  0  0  0
 17 32  1  0  0  0  0
 18  1  1  0  0  0  0
 19  1  1  0  0  0  0
 22  5  1  0  0  0  0
 25 13  1  0  0  0  0
 26 14  1  0  0  0  0
 27 14  1  0  0  0  0
 28 16  1  0  0  0  0
 29 16  1  0  0  0  0
 30 17  1  0  0  0  0
M  RAD  1  10   2
M  END
