314820574.xyz
 OpenBabel08132112113D
CC(n1c(nnc1S)Cc1ccncc1)C
 30 31  0  0  0  0  0  0  0  0999 V2000
   -2.9363   -1.1561    1.3121 C   0  0  0  0  0  0  0  0  0  0  0  0
   -2.5458    0.0576    2.1565 C   0  0  0  0  0  0  0  0  0  0  0  0
   -1.1282    0.0069    2.5502 N   0  0  0  0  0  0  0  0  0  0  0  0
   -0.6274    0.0163    3.8395 C   0  0  0  0  0  0  0  0  0  0  0  0
    0.6831    0.0158    3.8151 N   0  0  0  0  0  0  0  0  0  0  0  0
    1.0840   -0.0000    2.5038 N   0  0  0  0  0  0  0  0  0  0  0  0
    0.0000   -0.0000    1.7630 C   0  0  0  0  0  0  0  0  0  0  0  0
    0.0000    0.0000    0.0000 S   0  0  0  0  0  0  0  0  0  0  0  0
   -1.4602    0.1136    5.0759 C   0  0  0  0  0  0  0  0  0  0  0  0
   -2.1837    1.4422    5.1900 C   0  0  0  0  0  0  0  0  0  0  0  0
   -1.5080    2.6472    4.9565 C   0  0  0  0  0  0  0  0  0  0  0  0
   -2.2142    3.8482    5.0482 C   0  0  0  0  0  0  0  0  0  0  0  0
   -3.5158    3.9216    5.3447 N   0  0  0  0  0  0  0  0  0  0  0  0
   -4.1578    2.7747    5.5713 C   0  0  0  0  0  0  0  0  0  0  0  0
   -3.5434    1.5196    5.5069 C   0  0  0  0  0  0  0  0  0  0  0  0
   -2.8840    1.3984    1.5031 C   0  0  0  0  0  0  0  0  0  0  0  0
   -4.0214   -1.1458    1.1295 H   0  0  0  0  0  0  0  0  0  0  0  0
   -2.6795   -2.0917    1.8310 H   0  0  0  0  0  0  0  0  0  0  0  0
   -2.4298   -1.1582    0.3358 H   0  0  0  0  0  0  0  0  0  0  0  0
   -3.1008   -0.0013    3.1022 H   0  0  0  0  0  0  0  0  0  0  0  0
    1.3518    0.0337   -0.0397 H   0  0  0  0  0  0  0  0  0  0  0  0
   -0.7584   -0.0045    5.9155 H   0  0  0  0  0  0  0  0  0  0  0  0
   -2.1846   -0.7139    5.1411 H   0  0  0  0  0  0  0  0  0  0  0  0
   -0.4459    2.6431    4.6996 H   0  0  0  0  0  0  0  0  0  0  0  0
   -1.6999    4.7993    4.8678 H   0  0  0  0  0  0  0  0  0  0  0  0
   -5.2244    2.8493    5.8145 H   0  0  0  0  0  0  0  0  0  0  0  0
   -4.1249    0.6137    5.6982 H   0  0  0  0  0  0  0  0  0  0  0  0
   -3.9605    1.4454    1.2801 H   0  0  0  0  0  0  0  0  0  0  0  0
   -2.6342    2.2292    2.1789 H   0  0  0  0  0  0  0  0  0  0  0  0
   -2.3316    1.5368    0.5617 H   0  0  0  0  0  0  0  0  0  0  0  0
  1 18  1  0  0  0  0
  1  2  1  0  0  0  0
  2  3  1  0  0  0  0
  2 20  1  0  0  0  0
  3  4  1  0  0  0  0
  4  9  1  0  0  0  0
  5  4  2  0  0  0  0
  6  5  1  0  0  0  0
  7  6  2  0  0  0  0
  7  3  1  0  0  0  0
  8  7  1  0  0  0  0
  9 23  1  0  0  0  0
  9 10  1  0  0  0  0
  9 22  1  0  0  0  0
 10 15  1  0  0  0  0
 11 12  1  0  0  0  0
 11 10  2  0  0  0  0
 12 13  2  0  0  0  0
 13 14  2  0  0  0  0
 14 26  1  0  0  0  0
 15 14  1  0  0  0  0
 15 27  1  0  0  0  0
 16  2  1  0  0  0  0
 16 29  1  0  0  0  0
 17  1  1  0  0  0  0
 19  1  1  0  0  0  0
 21  8  1  0  0  0  0
 24 11  1  0  0  0  0
 25 12  1  0  0  0  0
 28 16  1  0  0  0  0
 30 16  1  0  0  0  0
M  RAD  1  15   2
M  END
