314824607.xyz
 OpenBabel08132112113D
CCCC(CN1CCCCC1CC)CS
 42 42  0  0  1  0  0  0  0  0999 V2000
    2.6348    3.7269    2.3870 C   0  0  0  0  0  0  0  0  0  0  0  0
    1.6887    2.5607    2.6700 C   0  0  0  0  0  0  0  0  0  0  0  0
    2.2371    1.2223    2.1752 C   0  0  0  0  0  0  0  0  0  0  0  0
    1.3788    0.0000    2.5154 C   0  0  2  0  0  0  0  0  0  0  0  0
    2.1362   -1.3081    2.2154 C   0  0  0  0  0  0  0  0  0  0  0  0
    3.3502   -1.4552    2.9767 N   0  0  0  0  0  0  0  0  0  0  0  0
    3.2617   -1.7116    4.3989 C   0  0  0  0  0  0  0  0  0  0  0  0
    4.3038   -0.8547    5.1506 C   0  0  0  0  0  0  0  0  0  0  0  0
    5.5128   -0.5684    4.2396 C   0  0  0  0  0  0  0  0  0  0  0  0
    5.7557   -1.7449    3.2954 C   0  0  0  0  0  0  0  0  0  0  0  0
    4.5561   -1.9745    2.3405 C   0  0  1  0  0  0  0  0  0  0  0  0
    4.5197   -3.4586    1.9136 C   0  0  0  0  0  0  0  0  0  0  0  0
    3.5720   -3.8177    0.7692 C   0  0  0  0  0  0  0  0  0  0  0  0
    0.0000   -0.0000    1.8419 C   0  0  0  0  0  0  0  0  0  0  0  0
    0.0000    0.0000    0.0000 S   0  0  0  0  0  0  0  0  0  0  0  0
    3.6121    3.5722    2.8741 H   0  0  0  0  0  0  0  0  0  0  0  0
    2.8208    3.8323    1.3052 H   0  0  0  0  0  0  0  0  0  0  0  0
    2.2261    4.6830    2.7508 H   0  0  0  0  0  0  0  0  0  0  0  0
    1.4945    2.4963    3.7565 H   0  0  0  0  0  0  0  0  0  0  0  0
    0.7112    2.7678    2.2000 H   0  0  0  0  0  0  0  0  0  0  0  0
    3.2346    1.0530    2.6115 H   0  0  0  0  0  0  0  0  0  0  0  0
    2.3762    1.2629    1.0805 H   0  0  0  0  0  0  0  0  0  0  0  0
    1.1688    0.0253    3.6021 H   0  0  0  0  0  0  0  0  0  0  0  0
    2.4053   -1.3017    1.1486 H   0  0  0  0  0  0  0  0  0  0  0  0
    1.4341   -2.1624    2.3516 H   0  0  0  0  0  0  0  0  0  0  0  0
    3.4161   -2.7880    4.6316 H   0  0  0  0  0  0  0  0  0  0  0  0
    2.2463   -1.4770    4.7487 H   0  0  0  0  0  0  0  0  0  0  0  0
    3.8502    0.0958    5.4749 H   0  0  0  0  0  0  0  0  0  0  0  0
    4.6259   -1.3826    6.0644 H   0  0  0  0  0  0  0  0  0  0  0  0
    5.3220    0.3368    3.6410 H   0  0  0  0  0  0  0  0  0  0  0  0
    6.4112   -0.3633    4.8436 H   0  0  0  0  0  0  0  0  0  0  0  0
    5.9243   -2.6568    3.8961 H   0  0  0  0  0  0  0  0  0  0  0  0
    6.6709   -1.5998    2.7004 H   0  0  0  0  0  0  0  0  0  0  0  0
    4.7172   -1.3661    1.4300 H   0  0  0  0  0  0  0  0  0  0  0  0
    4.2845   -4.0728    2.8014 H   0  0  0  0  0  0  0  0  0  0  0  0
    5.5485   -3.7380    1.6234 H   0  0  0  0  0  0  0  0  0  0  0  0
    2.5152   -3.7358    1.0608 H   0  0  0  0  0  0  0  0  0  0  0  0
    3.7291   -3.1604   -0.1025 H   0  0  0  0  0  0  0  0  0  0  0  0
    3.7379   -4.8541    0.4343 H   0  0  0  0  0  0  0  0  0  0  0  0
   -0.6010   -0.8548    2.1876 H   0  0  0  0  0  0  0  0  0  0  0  0
   -0.5601    0.9081    2.1067 H   0  0  0  0  0  0  0  0  0  0  0  0
    0.3622   -1.2920   -0.1665 H   0  0  0  0  0  0  0  0  0  0  0  0
  1  2  1  0  0  0  0
  1 18  1  0  0  0  0
  1 16  1  0  0  0  0
  2 19  1  0  0  0  0
  3  4  1  0  0  0  0
  3 21  1  0  0  0  0
  3  2  1  0  0  0  0
  4 23  1  1  0  0  0
  5 25  1  0  0  0  0
  5  4  1  0  0  0  0
  5  6  1  0  0  0  0
  6  7  1  0  0  0  0
  7 26  1  0  0  0  0
  7 27  1  0  0  0  0
  7  8  1  0  0  0  0
  8 28  1  0  0  0  0
  8 29  1  0  0  0  0
  9 31  1  0  0  0  0
  9  8  1  0  0  0  0
 10 32  1  0  0  0  0
 10  9  1  0  0  0  0
 11 34  1  6  0  0  0
 11  6  1  0  0  0  0
 11 10  1  0  0  0  0
 12 11  1  0  0  0  0
 12 35  1  0  0  0  0
 13 37  1  0  0  0  0
 13 12  1  0  0  0  0
 14 41  1  0  0  0  0
 14 40  1  0  0  0  0
 14  4  1  0  0  0  0
 15 14  1  0  0  0  0
 17  1  1  0  0  0  0
 20  2  1  0  0  0  0
 22  3  1  0  0  0  0
 24  5  1  0  0  0  0
 30  9  1  0  0  0  0
 33 10  1  0  0  0  0
 36 12  1  0  0  0  0
 38 13  1  0  0  0  0
 39 13  1  0  0  0  0
 42 15  1  0  0  0  0
M  END
