314844042.xyz
 OpenBabel08132112113D
Cc1oc(c(c1c1nnc(n1C1CC1)S)C)C
 32 34  0  0  0  0  0  0  0  0999 V2000
    0.3651    1.9304    6.3896 C   0  0  0  0  0  0  0  0  0  0  0  0
    1.2668    0.7794    6.1361 C   0  0  0  0  0  0  0  0  0  0  0  0
    2.1469    0.4333    7.1091 O   0  0  0  0  0  0  0  0  0  0  0  0
    2.8565   -0.6610    6.6900 C   0  0  0  0  0  0  0  0  0  0  0  0
    2.4433   -1.0300    5.4381 C   0  0  0  0  0  0  0  0  0  0  0  0
    1.4078   -0.0777    5.0723 C   0  0  0  0  0  0  0  0  0  0  0  0
    0.5969   -0.0585    3.8585 C   0  0  0  0  0  0  0  0  0  0  0  0
   -0.7172   -0.0771    3.8065 N   0  0  0  0  0  0  0  0  0  0  0  0
   -1.0930   -0.0412    2.4920 N   0  0  0  0  0  0  0  0  0  0  0  0
   -0.0000    0.0000    1.7652 C   0  0  0  0  0  0  0  0  0  0  0  0
    1.1165   -0.0000    2.5681 N   0  0  0  0  0  0  0  0  0  0  0  0
    2.5145    0.1610    2.2555 C   0  0  0  0  0  0  0  0  0  0  0  0
    3.1844   -0.5832    1.1348 C   0  0  0  0  0  0  0  0  0  0  0  0
    3.0049    0.9170    1.0535 C   0  0  0  0  0  0  0  0  0  0  0  0
    0.0000    0.0000    0.0000 S   0  0  0  0  0  0  0  0  0  0  0  0
    2.8978   -2.2056    4.6290 C   0  0  0  0  0  0  0  0  0  0  0  0
    3.8613   -1.2057    7.6395 C   0  0  0  0  0  0  0  0  0  0  0  0
   -0.2123    1.7761    7.3157 H   0  0  0  0  0  0  0  0  0  0  0  0
   -0.3443    2.0293    5.5582 H   0  0  0  0  0  0  0  0  0  0  0  0
    0.9309    2.8703    6.5051 H   0  0  0  0  0  0  0  0  0  0  0  0
    3.0786    0.2962    3.1788 H   0  0  0  0  0  0  0  0  0  0  0  0
    2.5511   -1.1977    0.4897 H   0  0  0  0  0  0  0  0  0  0  0  0
    4.1806   -0.9947    1.3182 H   0  0  0  0  0  0  0  0  0  0  0  0
    3.8748    1.5631    1.1985 H   0  0  0  0  0  0  0  0  0  0  0  0
    2.2719    1.3056    0.3434 H   0  0  0  0  0  0  0  0  0  0  0  0
   -1.3500   -0.0761   -0.0334 H   0  0  0  0  0  0  0  0  0  0  0  0
    3.3965   -2.9566    5.2589 H   0  0  0  0  0  0  0  0  0  0  0  0
    2.0418   -2.6944    4.1378 H   0  0  0  0  0  0  0  0  0  0  0  0
    3.6041   -1.9241    3.8311 H   0  0  0  0  0  0  0  0  0  0  0  0
    4.6676   -0.4790    7.8374 H   0  0  0  0  0  0  0  0  0  0  0  0
    4.3186   -2.1166    7.2302 H   0  0  0  0  0  0  0  0  0  0  0  0
    3.4002   -1.4556    8.6095 H   0  0  0  0  0  0  0  0  0  0  0  0
  1 20  1  0  0  0  0
  1 18  1  0  0  0  0
  2  1  1  0  0  0  0
  2  3  1  0  0  0  0
  4  3  1  0  0  0  0
  4 17  1  0  0  0  0
  5  4  2  0  0  0  0
  6  5  1  0  0  0  0
  6  2  2  0  0  0  0
  7  6  1  0  0  0  0
  8  7  2  0  0  0  0
  9  8  1  0  0  0  0
 10  9  2  0  0  0  0
 10 11  1  0  0  0  0
 11  7  1  0  0  0  0
 12 11  1  0  0  0  0
 12 21  1  0  0  0  0
 13 23  1  0  0  0  0
 13 12  1  0  0  0  0
 14 13  1  0  0  0  0
 14 24  1  0  0  0  0
 14 12  1  0  0  0  0
 15 10  1  0  0  0  0
 16 27  1  0  0  0  0
 16  5  1  0  0  0  0
 17 30  1  0  0  0  0
 17 32  1  0  0  0  0
 19  1  1  0  0  0  0
 22 13  1  0  0  0  0
 25 14  1  0  0  0  0
 26 15  1  0  0  0  0
 28 16  1  0  0  0  0
 29 16  1  0  0  0  0
 31 17  1  0  0  0  0
M  END
