314888243.xyz
 OpenBabel08132112113D
SCC(C(C)(C)C)COc1cc(C)ccc1Cl
 38 38  0  0  1  0  0  0  0  0999 V2000
    0.0000    0.0000    0.0000 S   0  0  0  0  0  0  0  0  0  0  0  0
   -0.0000   -0.0000    1.8369 C   0  0  0  0  0  0  0  0  0  0  0  0
    1.3877    0.0000    2.4985 C   0  0  1  0  0  0  0  0  0  0  0  0
    1.3158    0.2095    4.0530 C   0  0  0  0  0  0  0  0  0  0  0  0
    0.3640   -0.7885    4.7375 C   0  0  0  0  0  0  0  0  0  0  0  0
    0.8369    1.6455    4.3404 C   0  0  0  0  0  0  0  0  0  0  0  0
    2.7182    0.0493    4.6676 C   0  0  0  0  0  0  0  0  0  0  0  0
    2.1872   -1.2136    2.0362 C   0  0  0  0  0  0  0  0  0  0  0  0
    1.4598   -2.4062    2.3408 O   0  0  0  0  0  0  0  0  0  0  0  0
    1.9656   -3.5571    1.8193 C   0  0  0  0  0  0  0  0  0  0  0  0
    1.7336   -3.8945    0.4835 C   0  0  0  0  0  0  0  0  0  0  0  0
    2.2143   -5.0929   -0.0630 C   0  0  0  0  0  0  0  0  0  0  0  0
    1.9349   -5.4374   -1.5038 C   0  0  0  0  0  0  0  0  0  0  0  0
    2.9420   -5.9558    0.7688 C   0  0  0  0  0  0  0  0  0  0  0  0
    3.1867   -5.6343    2.1058 C   0  0  0  0  0  0  0  0  0  0  0  0
    2.7060   -4.4347    2.6292 C   0  0  0  0  0  0  0  0  0  0  0  0
    3.0141   -4.0136    4.2969 Cl  0  0  0  0  0  0  0  0  0  0  0  0
    0.6587    1.1720   -0.1626 H   0  0  0  0  0  0  0  0  0  0  0  0
   -0.6075    0.8455    2.1819 H   0  0  0  0  0  0  0  0  0  0  0  0
   -0.5360   -0.9233    2.0935 H   0  0  0  0  0  0  0  0  0  0  0  0
    1.9478    0.8697    2.1067 H   0  0  0  0  0  0  0  0  0  0  0  0
    0.6696   -1.8247    4.5436 H   0  0  0  0  0  0  0  0  0  0  0  0
    0.3688   -0.6209    5.8267 H   0  0  0  0  0  0  0  0  0  0  0  0
   -0.6747   -0.6660    4.3938 H   0  0  0  0  0  0  0  0  0  0  0  0
   -0.1778    1.8334    3.9584 H   0  0  0  0  0  0  0  0  0  0  0  0
    0.8142    1.8298    5.4260 H   0  0  0  0  0  0  0  0  0  0  0  0
    1.5129    2.3902    3.8886 H   0  0  0  0  0  0  0  0  0  0  0  0
    3.4603    0.6824    4.1528 H   0  0  0  0  0  0  0  0  0  0  0  0
    3.0658   -0.9929    4.6311 H   0  0  0  0  0  0  0  0  0  0  0  0
    2.7007    0.3527    5.7264 H   0  0  0  0  0  0  0  0  0  0  0  0
    2.3344   -1.1509    0.9457 H   0  0  0  0  0  0  0  0  0  0  0  0
    3.1789   -1.2534    2.5126 H   0  0  0  0  0  0  0  0  0  0  0  0
    1.1566   -3.1919   -0.1238 H   0  0  0  0  0  0  0  0  0  0  0  0
    2.4484   -6.3620   -1.8046 H   0  0  0  0  0  0  0  0  0  0  0  0
    0.8549   -5.5803   -1.6753 H   0  0  0  0  0  0  0  0  0  0  0  0
    2.2631   -4.6300   -2.1782 H   0  0  0  0  0  0  0  0  0  0  0  0
    3.3252   -6.8975    0.3682 H   0  0  0  0  0  0  0  0  0  0  0  0
    3.7544   -6.3083    2.7492 H   0  0  0  0  0  0  0  0  0  0  0  0
  1  2  1  0  0  0  0
  2 20  1  0  0  0  0
  2 19  1  0  0  0  0
  2  3  1  0  0  0  0
  3 21  1  6  0  0  0
  3  4  1  0  0  0  0
  4  6  1  0  0  0  0
  4  7  1  0  0  0  0
  4  5  1  0  0  0  0
  5 23  1  0  0  0  0
  6 26  1  0  0  0  0
  7 30  1  0  0  0  0
  8  9  1  0  0  0  0
  8  3  1  0  0  0  0
  8 32  1  0  0  0  0
 10  9  1  0  0  0  0
 10 16  2  0  0  0  0
 11 10  1  0  0  0  0
 12 11  2  0  0  0  0
 12 14  1  0  0  0  0
 13 12  1  0  0  0  0
 14 15  2  0  0  0  0
 15 16  1  0  0  0  0
 15 38  1  0  0  0  0
 16 17  1  0  0  0  0
 18  1  1  0  0  0  0
 22  5  1  0  0  0  0
 24  5  1  0  0  0  0
 25  6  1  0  0  0  0
 27  6  1  0  0  0  0
 28  7  1  0  0  0  0
 29  7  1  0  0  0  0
 31  8  1  0  0  0  0
 33 11  1  0  0  0  0
 34 13  1  0  0  0  0
 35 13  1  0  0  0  0
 36 13  1  0  0  0  0
 37 14  1  0  0  0  0
M  END
