314886750.xyz
 OpenBabel08132112113D
Cc1cn(c(n1)S)c1ccccc1C(C)(C)C
 35 36  0  0  0  0  0  0  0  0999 V2000
    1.4681    0.0226    5.0296 C   0  0  0  0  0  0  0  0  0  0  0  0
    0.5563    0.0069    3.8461 C   0  0  0  0  0  0  0  0  0  0  0  0
   -0.8202    0.0082    3.8172 C   0  0  0  0  0  0  0  0  0  0  0  0
   -1.1768   -0.0104    2.4712 N   0  0  0  0  0  0  0  0  0  0  0  0
   -0.0000   -0.0000    1.7667 C   0  0  0  0  0  0  0  0  0  0  0  0
    1.0496   -0.0000    2.5538 N   0  0  0  0  0  0  0  0  0  0  0  0
    0.0000    0.0000    0.0000 S   0  0  0  0  0  0  0  0  0  0  0  0
   -2.4923    0.0015    1.9117 C   0  0  0  0  0  0  0  0  0  0  0  0
   -2.9543    1.2539    1.4834 C   0  0  0  0  0  0  0  0  0  0  0  0
   -4.2111    1.3959    0.9036 C   0  0  0  0  0  0  0  0  0  0  0  0
   -5.0088    0.2620    0.7590 C   0  0  0  0  0  0  0  0  0  0  0  0
   -4.5425   -0.9829    1.1820 C   0  0  0  0  0  0  0  0  0  0  0  0
   -3.2744   -1.1695    1.7648 C   0  0  0  0  0  0  0  0  0  0  0  0
   -2.8519   -2.5790    2.2415 C   0  0  0  0  0  0  0  0  0  0  0  0
   -3.6708   -3.6707    1.5209 C   0  0  0  0  0  0  0  0  0  0  0  0
   -3.1408   -2.6924    3.7548 C   0  0  0  0  0  0  0  0  0  0  0  0
   -1.3622   -2.8945    1.9787 C   0  0  0  0  0  0  0  0  0  0  0  0
    2.1187    0.9122    5.0123 H   0  0  0  0  0  0  0  0  0  0  0  0
    2.1288   -0.8596    5.0270 H   0  0  0  0  0  0  0  0  0  0  0  0
    0.8990    0.0268    5.9706 H   0  0  0  0  0  0  0  0  0  0  0  0
   -1.5702    0.0427    4.6012 H   0  0  0  0  0  0  0  0  0  0  0  0
    1.3486   -0.0687   -0.0517 H   0  0  0  0  0  0  0  0  0  0  0  0
   -2.2959    2.1144    1.6152 H   0  0  0  0  0  0  0  0  0  0  0  0
   -4.5599    2.3762    0.5724 H   0  0  0  0  0  0  0  0  0  0  0  0
   -6.0017    0.3388    0.3095 H   0  0  0  0  0  0  0  0  0  0  0  0
   -5.1968   -1.8413    1.0460 H   0  0  0  0  0  0  0  0  0  0  0  0
   -3.3036   -4.6602    1.8307 H   0  0  0  0  0  0  0  0  0  0  0  0
   -4.7409   -3.6350    1.7715 H   0  0  0  0  0  0  0  0  0  0  0  0
   -3.5678   -3.5986    0.4271 H   0  0  0  0  0  0  0  0  0  0  0  0
   -2.5365   -1.9816    4.3336 H   0  0  0  0  0  0  0  0  0  0  0  0
   -2.8976   -3.7067    4.1112 H   0  0  0  0  0  0  0  0  0  0  0  0
   -4.2034   -2.4990    3.9693 H   0  0  0  0  0  0  0  0  0  0  0  0
   -0.6868   -2.3630    2.6582 H   0  0  0  0  0  0  0  0  0  0  0  0
   -1.0745   -2.6534    0.9448 H   0  0  0  0  0  0  0  0  0  0  0  0
   -1.1931   -3.9711    2.1352 H   0  0  0  0  0  0  0  0  0  0  0  0
  1 20  1  0  0  0  0
  2  1  1  0  0  0  0
  3  2  1  0  0  0  0
  3 21  1  0  0  0  0
  4  3  1  0  0  0  0
  5  4  1  0  0  0  0
  5  6  2  0  0  0  0
  6  2  2  0  0  0  0
  7  5  1  0  0  0  0
  8  4  1  0  0  0  0
  9 23  1  0  0  0  0
  9  8  2  0  0  0  0
 10  9  1  0  0  0  0
 11 10  2  0  0  0  0
 11 12  1  0  0  0  0
 12 13  2  0  0  0  0
 13  8  1  0  0  0  0
 13 14  1  0  0  0  0
 14 16  1  0  0  0  0
 15 28  1  0  0  0  0
 15 27  1  0  0  0  0
 15 14  1  0  0  0  0
 16 32  1  0  0  0  0
 16 31  1  0  0  0  0
 16 30  1  0  0  0  0
 17 35  1  0  0  0  0
 17 14  1  0  0  0  0
 17 33  1  0  0  0  0
 18  1  1  0  0  0  0
 19  1  1  0  0  0  0
 22  7  1  0  0  0  0
 24 10  1  0  0  0  0
 25 11  1  0  0  0  0
 26 12  1  0  0  0  0
 29 15  1  0  0  0  0
 34 17  1  0  0  0  0
M  RAD  1   3   2
M  END
