314986224.xyz
 OpenBabel08132112113D
CCC(n1c(S)nc2c1c(C)ccc2)(C)C
 34 35  0  0  1  0  0  0  0  0999 V2000
    2.8480   -2.2266    2.0668 C   0  0  0  0  0  0  0  0  0  0  0  0
    3.4405   -0.8997    2.5366 C   0  0  0  0  0  0  0  0  0  0  0  0
    2.5278    0.3298    2.2836 C   0  0  0  0  0  0  0  0  0  0  0  0
    1.1084   -0.0000    2.6233 N   0  0  0  0  0  0  0  0  0  0  0  0
    0.0000   -0.0000    1.7770 C   0  0  0  0  0  0  0  0  0  0  0  0
    0.0000    0.0000    0.0000 S   0  0  0  0  0  0  0  0  0  0  0  0
   -1.1443   -0.0949    2.3981 N   0  0  0  0  0  0  0  0  0  0  0  0
   -0.8388   -0.1839    3.7355 C   0  0  0  0  0  0  0  0  0  0  0  0
    0.5737   -0.1707    3.9323 C   0  0  1  0  0  0  0  0  0  0  0  0
    1.0990   -0.3684    5.2399 C   0  0  0  0  0  0  0  0  0  0  0  0
    2.5317   -0.6202    5.6552 C   0  0  0  0  0  0  0  0  0  0  0  0
    0.1477   -0.4573    6.2714 C   0  0  0  0  0  0  0  0  0  0  0  0
   -1.2400   -0.4099    6.0735 C   0  0  0  0  0  0  0  0  0  0  0  0
   -1.7516   -0.2934    4.7905 C   0  0  0  0  0  0  0  0  0  0  0  0
    2.9440    1.5679    3.1000 C   0  0  0  0  0  0  0  0  0  0  0  0
    2.7047    0.7269    0.8097 C   0  0  0  0  0  0  0  0  0  0  0  0
    2.5305   -2.1908    1.0130 H   0  0  0  0  0  0  0  0  0  0  0  0
    3.5867   -3.0368    2.1656 H   0  0  0  0  0  0  0  0  0  0  0  0
    1.9654   -2.5006    2.6641 H   0  0  0  0  0  0  0  0  0  0  0  0
    4.3922   -0.7051    2.0154 H   0  0  0  0  0  0  0  0  0  0  0  0
    3.6978   -0.9737    3.5965 H   0  0  0  0  0  0  0  0  0  0  0  0
   -1.3373   -0.1995   -0.0007 H   0  0  0  0  0  0  0  0  0  0  0  0
    3.2537    0.1236    5.2991 H   0  0  0  0  0  0  0  0  0  0  0  0
    2.8769   -1.6065    5.3050 H   0  0  0  0  0  0  0  0  0  0  0  0
    2.5943   -0.6325    6.7519 H   0  0  0  0  0  0  0  0  0  0  0  0
    0.5223   -0.6014    7.2876 H   0  0  0  0  0  0  0  0  0  0  0  0
   -1.9086   -0.4910    6.9334 H   0  0  0  0  0  0  0  0  0  0  0  0
   -2.8215   -0.2896    4.5771 H   0  0  0  0  0  0  0  0  0  0  0  0
    2.4489    2.4635    2.6954 H   0  0  0  0  0  0  0  0  0  0  0  0
    4.0324    1.7152    3.0286 H   0  0  0  0  0  0  0  0  0  0  0  0
    2.6712    1.4974    4.1564 H   0  0  0  0  0  0  0  0  0  0  0  0
    2.0428    1.5516    0.5160 H   0  0  0  0  0  0  0  0  0  0  0  0
    2.5648   -0.1136    0.1186 H   0  0  0  0  0  0  0  0  0  0  0  0
    3.7397    1.0773    0.6901 H   0  0  0  0  0  0  0  0  0  0  0  0
  1 18  1  0  0  0  0
  1  2  1  0  0  0  0
  1 19  1  0  0  0  0
  2 21  1  0  0  0  0
  3  2  1  0  0  0  0
  3  4  1  0  0  0  0
  3 15  1  0  0  0  0
  4  9  1  0  0  0  0
  5  7  2  0  0  0  0
  5  4  1  0  0  0  0
  6  5  1  0  0  0  0
  7  8  2  0  0  0  0
  8 14  1  0  0  0  0
  9  8  1  6  0  0  0
  9 10  1  0  0  0  0
 10 11  1  0  0  0  0
 10 12  2  0  0  0  0
 11 25  1  0  0  0  0
 12 26  1  0  0  0  0
 13 12  1  0  0  0  0
 13 27  1  0  0  0  0
 14 13  2  0  0  0  0
 15 31  1  0  0  0  0
 16  3  1  0  0  0  0
 17  1  1  0  0  0  0
 20  2  1  0  0  0  0
 22  6  1  0  0  0  0
 23 11  1  0  0  0  0
 24 11  1  0  0  0  0
 28 14  1  0  0  0  0
 29 15  1  0  0  0  0
 30 15  1  0  0  0  0
 32 16  1  0  0  0  0
 33 16  1  0  0  0  0
 34 16  1  0  0  0  0
M  RAD  1   9   2
M  END
