314919983.xyz
 OpenBabel08132112113D
Brc1ccc2c(c1)n(CCc1ccco1)c(n2)S
 29 31  0  0  1  0  0  0  0  0999 V2000
    1.9188   -0.1172    7.8006 Br  0  0  0  0  0  0  0  0  0  0  0  0
    0.9316   -0.0739    6.1672 C   0  0  2  0  0  0  0  0  0  0  0  0
   -0.4757   -0.0594    6.2256 C   0  0  0  0  0  0  0  0  0  0  0  0
   -1.2337   -0.0329    5.0554 C   0  0  0  0  0  0  0  0  0  0  0  0
   -0.5644   -0.0214    3.8250 C   0  0  0  0  0  0  0  0  0  0  0  0
    0.8555   -0.0305    3.8018 C   0  0  0  0  0  0  0  0  0  0  0  0
    1.6336   -0.0602    4.9603 C   0  0  0  0  0  0  0  0  0  0  0  0
    1.1978    0.0000    2.4565 N   0  0  0  0  0  0  0  0  0  0  0  0
    2.5351   -0.0865    1.9066 C   0  0  0  0  0  0  0  0  0  0  0  0
    3.0021   -1.5397    1.7071 C   0  0  0  0  0  0  0  0  0  0  0  0
    4.4083   -1.6188    1.2289 C   0  0  0  0  0  0  0  0  0  0  0  0
    4.9953   -2.0662    0.0769 C   0  0  0  0  0  0  0  0  0  0  0  0
    6.4068   -1.8401    0.2232 C   0  0  0  0  0  0  0  0  0  0  0  0
    6.5708   -1.2664    1.4502 C   0  0  0  0  0  0  0  0  0  0  0  0
    5.3669   -1.1262    2.0672 O   0  0  0  0  0  0  0  0  0  0  0  0
    0.0000    0.0000    1.7629 C   0  0  0  0  0  0  0  0  0  0  0  0
   -1.0589   -0.0035    2.5304 N   0  0  0  0  0  0  0  0  0  0  0  0
    0.0000    0.0000    0.0000 S   0  0  0  0  0  0  0  0  0  0  0  0
   -0.9675   -0.0712    7.1989 H   0  0  0  0  0  0  0  0  0  0  0  0
   -2.3243   -0.0229    5.0900 H   0  0  0  0  0  0  0  0  0  0  0  0
    2.7234   -0.0768    4.9392 H   0  0  0  0  0  0  0  0  0  0  0  0
    3.2214    0.4371    2.5877 H   0  0  0  0  0  0  0  0  0  0  0  0
    2.5602    0.4571    0.9498 H   0  0  0  0  0  0  0  0  0  0  0  0
    2.8943   -2.0760    2.6656 H   0  0  0  0  0  0  0  0  0  0  0  0
    2.3483   -2.0392    0.9774 H   0  0  0  0  0  0  0  0  0  0  0  0
    4.4814   -2.5094   -0.7732 H   0  0  0  0  0  0  0  0  0  0  0  0
    7.1912   -2.0757   -0.4925 H   0  0  0  0  0  0  0  0  0  0  0  0
    7.4374   -0.9182    2.0053 H   0  0  0  0  0  0  0  0  0  0  0  0
   -1.3493    0.0274   -0.0593 H   0  0  0  0  0  0  0  0  0  0  0  0
  2  3  1  0  0  0  0
  2  1  1  6  0  0  0
  3 19  1  0  0  0  0
  4 20  1  0  0  0  0
  4  3  2  0  0  0  0
  5  4  1  0  0  0  0
  6  5  1  0  0  0  0
  6  7  2  0  0  0  0
  7  2  1  0  0  0  0
  8  6  1  0  0  0  0
  9  8  1  0  0  0  0
  9 22  1  0  0  0  0
 10  9  1  0  0  0  0
 10 24  1  0  0  0  0
 11 10  1  0  0  0  0
 11 15  1  0  0  0  0
 12 13  1  0  0  0  0
 12 11  2  0  0  0  0
 13 14  2  0  0  0  0
 14 28  1  0  0  0  0
 14 15  1  0  0  0  0
 16  8  1  0  0  0  0
 16 17  2  0  0  0  0
 17  5  2  0  0  0  0
 18 16  1  0  0  0  0
 21  7  1  0  0  0  0
 23  9  1  0  0  0  0
 25 10  1  0  0  0  0
 26 12  1  0  0  0  0
 27 13  1  0  0  0  0
 29 18  1  0  0  0  0
M  RAD  1   2   2
M  END
