314976749.xyz
 OpenBabel08132112113D
SCC1(CCCCC1)CN(C(CC)(C)C)C
 45 45  0  0  0  0  0  0  0  0999 V2000
    0.0000    0.0000    0.0000 S   0  0  0  0  0  0  0  0  0  0  0  0
    0.0000   -0.0000    1.8488 C   0  0  0  0  0  0  0  0  0  0  0  0
    1.3886    0.0000    2.5208 C   0  0  0  0  0  0  0  0  0  0  0  0
    1.1483    0.0609    4.0628 C   0  0  0  0  0  0  0  0  0  0  0  0
    2.2855    0.7630    4.8080 C   0  0  0  0  0  0  0  0  0  0  0  0
    2.3613    2.2518    4.4148 C   0  0  0  0  0  0  0  0  0  0  0  0
    1.9048    2.4702    2.9579 C   0  0  0  0  0  0  0  0  0  0  0  0
    2.2119    1.2455    2.0928 C   0  0  0  0  0  0  0  0  0  0  0  0
    2.1175   -1.3377    2.2132 C   0  0  0  0  0  0  0  0  0  0  0  0
    2.1240   -1.7444    0.8156 N   0  0  0  0  0  0  0  0  0  0  0  0
    1.7982   -3.1751    0.5438 C   0  0  0  0  0  0  0  0  0  0  0  0
    2.8421   -4.1075    1.2174 C   0  0  0  0  0  0  0  0  0  0  0  0
    2.6994   -5.6061    0.9476 C   0  0  0  0  0  0  0  0  0  0  0  0
    1.7772   -3.3976   -0.9785 C   0  0  0  0  0  0  0  0  0  0  0  0
    0.3791   -3.4789    1.0586 C   0  0  0  0  0  0  0  0  0  0  0  0
    3.2434   -1.1978    0.0711 C   0  0  0  0  0  0  0  0  0  0  0  0
   -0.9806    0.9354   -0.1179 H   0  0  0  0  0  0  0  0  0  0  0  0
   -0.5712   -0.8722    2.2012 H   0  0  0  0  0  0  0  0  0  0  0  0
   -0.5494    0.8973    2.1632 H   0  0  0  0  0  0  0  0  0  0  0  0
    0.9964   -0.9580    4.4545 H   0  0  0  0  0  0  0  0  0  0  0  0
    0.2100    0.6040    4.2693 H   0  0  0  0  0  0  0  0  0  0  0  0
    2.1530    0.6585    5.8967 H   0  0  0  0  0  0  0  0  0  0  0  0
    3.2368    0.2593    4.5689 H   0  0  0  0  0  0  0  0  0  0  0  0
    3.3939    2.6156    4.5465 H   0  0  0  0  0  0  0  0  0  0  0  0
    1.7348    2.8536    5.0942 H   0  0  0  0  0  0  0  0  0  0  0  0
    0.8199    2.6696    2.9279 H   0  0  0  0  0  0  0  0  0  0  0  0
    2.3844    3.3671    2.5349 H   0  0  0  0  0  0  0  0  0  0  0  0
    3.2879    1.0203    2.1798 H   0  0  0  0  0  0  0  0  0  0  0  0
    2.0174    1.4606    1.0323 H   0  0  0  0  0  0  0  0  0  0  0  0
    1.6017   -2.1104    2.7944 H   0  0  0  0  0  0  0  0  0  0  0  0
    3.1451   -1.2857    2.6323 H   0  0  0  0  0  0  0  0  0  0  0  0
    3.8466   -3.7841    0.8958 H   0  0  0  0  0  0  0  0  0  0  0  0
    2.8039   -3.9389    2.3068 H   0  0  0  0  0  0  0  0  0  0  0  0
    1.7228   -5.9939    1.2775 H   0  0  0  0  0  0  0  0  0  0  0  0
    2.8081   -5.8445   -0.1218 H   0  0  0  0  0  0  0  0  0  0  0  0
    3.4745   -6.1723    1.4882 H   0  0  0  0  0  0  0  0  0  0  0  0
    2.7831   -3.3751   -1.4224 H   0  0  0  0  0  0  0  0  0  0  0  0
    1.3384   -4.3777   -1.2115 H   0  0  0  0  0  0  0  0  0  0  0  0
    1.1601   -2.6256   -1.4611 H   0  0  0  0  0  0  0  0  0  0  0  0
    0.0783   -4.4967    0.7723 H   0  0  0  0  0  0  0  0  0  0  0  0
    0.3009   -3.4174    2.1536 H   0  0  0  0  0  0  0  0  0  0  0  0
   -0.3358   -2.7706    0.6160 H   0  0  0  0  0  0  0  0  0  0  0  0
    3.0649   -1.2442   -1.0107 H   0  0  0  0  0  0  0  0  0  0  0  0
    4.2124   -1.7001    0.2858 H   0  0  0  0  0  0  0  0  0  0  0  0
    3.3647   -0.1383    0.3192 H   0  0  0  0  0  0  0  0  0  0  0  0
  1  2  1  0  0  0  0
  2 19  1  0  0  0  0
  2 18  1  0  0  0  0
  2  3  1  0  0  0  0
  3  4  1  0  0  0  0
  4 21  1  0  0  0  0
  4 20  1  0  0  0  0
  4  5  1  0  0  0  0
  5 22  1  0  0  0  0
  6 24  1  0  0  0  0
  6  5  1  0  0  0  0
  6 25  1  0  0  0  0
  7  6  1  0  0  0  0
  8 28  1  0  0  0  0
  8  3  1  0  0  0  0
  8  7  1  0  0  0  0
  9  3  1  0  0  0  0
  9 31  1  0  0  0  0
  9 30  1  0  0  0  0
 10  9  1  0  0  0  0
 11 10  1  0  0  0  0
 11 15  1  0  0  0  0
 11 12  1  0  0  0  0
 12 33  1  0  0  0  0
 13 12  1  0  0  0  0
 13 34  1  0  0  0  0
 13 36  1  0  0  0  0
 14 11  1  0  0  0  0
 15 41  1  0  0  0  0
 16 44  1  0  0  0  0
 16 45  1  0  0  0  0
 16 10  1  0  0  0  0
 17  1  1  0  0  0  0
 23  5  1  0  0  0  0
 26  7  1  0  0  0  0
 27  7  1  0  0  0  0
 29  8  1  0  0  0  0
 32 12  1  0  0  0  0
 35 13  1  0  0  0  0
 37 14  1  0  0  0  0
 38 14  1  0  0  0  0
 39 14  1  0  0  0  0
 40 15  1  0  0  0  0
 42 15  1  0  0  0  0
 43 16  1  0  0  0  0
M  END
