314912362.xyz
 OpenBabel08132112113D
Cc1noc(n1)Cn1c(S)nc2c1n(C)nc2C
 30 32  0  0  1  0  0  0  0  0999 V2000
    3.9783   -4.4317    0.1771 C   0  0  0  0  0  0  0  0  0  0  0  0
    3.7149   -3.2678    1.0659 C   0  0  0  0  0  0  0  0  0  0  0  0
    3.9736   -3.2805    2.3503 N   0  0  0  0  0  0  0  0  0  0  0  0
    3.5786   -2.0135    2.7788 O   0  0  0  0  0  0  0  0  0  0  0  0
    3.1177   -1.3643    1.7001 C   0  0  0  0  0  0  0  0  0  0  0  0
    3.1757   -2.0755    0.6188 N   0  0  0  0  0  0  0  0  0  0  0  0
    2.5605    0.0132    1.8884 C   0  0  0  0  0  0  0  0  0  0  0  0
    1.2320   -0.0000    2.4627 N   0  0  0  0  0  0  0  0  0  0  0  0
    0.0000   -0.0000    1.7693 C   0  0  0  0  0  0  0  0  0  0  0  0
    0.0000    0.0000    0.0000 S   0  0  0  0  0  0  0  0  0  0  0  0
   -1.0452   -0.0002    2.5517 N   0  0  0  0  0  0  0  0  0  0  0  0
   -0.5231   -0.0059    3.8364 C   0  0  0  0  0  0  0  0  0  0  0  0
    0.8633   -0.0246    3.7917 C   0  0  1  0  0  0  0  0  0  0  0  0
    1.3461   -0.0776    5.0550 N   0  0  0  0  0  0  0  0  0  0  0  0
    2.7044   -0.0575    5.5426 C   0  0  0  0  0  0  0  0  0  0  0  0
    0.2938   -0.0655    5.9331 N   0  0  0  0  0  0  0  0  0  0  0  0
   -0.8380   -0.0301    5.2288 C   0  0  0  0  0  0  0  0  0  0  0  0
   -2.1716   -0.0304    5.9009 C   0  0  0  0  0  0  0  0  0  0  0  0
    3.0415   -4.7615   -0.2975 H   0  0  0  0  0  0  0  0  0  0  0  0
    4.4087   -5.2614    0.7517 H   0  0  0  0  0  0  0  0  0  0  0  0
    4.6722   -4.1432   -0.6273 H   0  0  0  0  0  0  0  0  0  0  0  0
    3.2261    0.5986    2.5398 H   0  0  0  0  0  0  0  0  0  0  0  0
    2.5166    0.5009    0.9053 H   0  0  0  0  0  0  0  0  0  0  0  0
   -1.2258    0.5640   -0.0701 H   0  0  0  0  0  0  0  0  0  0  0  0
    2.6896   -0.4383    6.5712 H   0  0  0  0  0  0  0  0  0  0  0  0
    3.1254    0.9632    5.5499 H   0  0  0  0  0  0  0  0  0  0  0  0
    3.3371   -0.7125    4.9261 H   0  0  0  0  0  0  0  0  0  0  0  0
   -2.7531    0.8661    5.6308 H   0  0  0  0  0  0  0  0  0  0  0  0
   -2.0416   -0.0519    6.9915 H   0  0  0  0  0  0  0  0  0  0  0  0
   -2.7682   -0.9064    5.5982 H   0  0  0  0  0  0  0  0  0  0  0  0
  1 20  1  0  0  0  0
  1  2  1  0  0  0  0
  2  3  2  0  0  0  0
  3  4  1  0  0  0  0
  5  7  1  0  0  0  0
  5  4  1  0  0  0  0
  6  2  2  0  0  0  0
  6  5  2  0  0  0  0
  7  8  1  0  0  0  0
  7 22  1  0  0  0  0
  8 13  1  0  0  0  0
  9  8  1  0  0  0  0
  9 11  2  0  0  0  0
 10  9  1  0  0  0  0
 11 12  2  0  0  0  0
 12 17  1  0  0  0  0
 13 12  1  6  0  0  0
 13 14  1  0  0  0  0
 14 15  1  0  0  0  0
 14 16  1  0  0  0  0
 15 26  1  0  0  0  0
 15 25  1  0  0  0  0
 17 18  1  0  0  0  0
 17 16  2  0  0  0  0
 18 29  1  0  0  0  0
 19  1  1  0  0  0  0
 21  1  1  0  0  0  0
 23  7  1  0  0  0  0
 24 10  1  0  0  0  0
 27 15  1  0  0  0  0
 28 18  1  0  0  0  0
 30 18  1  0  0  0  0
M  RAD  1  13   2
M  END
