314980560.xyz
 OpenBabel08132112113D
CCCC(CN1CCN(C(C1)(C)C)C)CS
 44 44  0  0  1  0  0  0  0  0999 V2000
    2.3604    1.2885    6.1078 C   0  0  0  0  0  0  0  0  0  0  0  0
    2.5694    0.7684    4.6862 C   0  0  0  0  0  0  0  0  0  0  0  0
    1.2533    0.4356    3.9771 C   0  0  0  0  0  0  0  0  0  0  0  0
    1.3840   -0.0000    2.5045 C   0  0  1  0  0  0  0  0  0  0  0  0
    2.0857   -1.3679    2.4185 C   0  0  0  0  0  0  0  0  0  0  0  0
    2.4060   -1.8107    1.0648 N   0  0  0  0  0  0  0  0  0  0  0  0
    3.5159   -1.0903    0.4331 C   0  0  0  0  0  0  0  0  0  0  0  0
    4.7358   -1.9971    0.2230 C   0  0  0  0  0  0  0  0  0  0  0  0
    4.8729   -2.9064    1.3474 N   0  0  0  0  0  0  0  0  0  0  0  0
    3.7947   -3.9213    1.4092 C   0  0  0  0  0  0  0  0  0  0  0  0
    2.5013   -3.2416    0.8575 C   0  0  0  0  0  0  0  0  0  0  0  0
    4.0803   -5.1632    0.5418 C   0  0  0  0  0  0  0  0  0  0  0  0
    3.5939   -4.3610    2.8679 C   0  0  0  0  0  0  0  0  0  0  0  0
    6.2218   -3.4000    1.5250 C   0  0  0  0  0  0  0  0  0  0  0  0
    0.0000    0.0000    1.8378 C   0  0  0  0  0  0  0  0  0  0  0  0
    0.0000    0.0000    0.0000 S   0  0  0  0  0  0  0  0  0  0  0  0
    1.8409    0.5425    6.7323 H   0  0  0  0  0  0  0  0  0  0  0  0
    3.3179    1.5250    6.5982 H   0  0  0  0  0  0  0  0  0  0  0  0
    1.7468    2.2047    6.1124 H   0  0  0  0  0  0  0  0  0  0  0  0
    3.2215   -0.1201    4.7177 H   0  0  0  0  0  0  0  0  0  0  0  0
    3.1156    1.5223    4.0909 H   0  0  0  0  0  0  0  0  0  0  0  0
    0.6045    1.3280    4.0184 H   0  0  0  0  0  0  0  0  0  0  0  0
    0.7174   -0.3487    4.5447 H   0  0  0  0  0  0  0  0  0  0  0  0
    2.0019    0.7538    1.9853 H   0  0  0  0  0  0  0  0  0  0  0  0
    1.4112   -2.1175    2.8654 H   0  0  0  0  0  0  0  0  0  0  0  0
    2.9969   -1.3465    3.0459 H   0  0  0  0  0  0  0  0  0  0  0  0
    3.8047   -0.2525    1.0847 H   0  0  0  0  0  0  0  0  0  0  0  0
    3.1964   -0.6442   -0.5281 H   0  0  0  0  0  0  0  0  0  0  0  0
    4.6686   -2.5317   -0.7516 H   0  0  0  0  0  0  0  0  0  0  0  0
    5.6407   -1.3736    0.1584 H   0  0  0  0  0  0  0  0  0  0  0  0
    2.4468   -3.4239   -0.2295 H   0  0  0  0  0  0  0  0  0  0  0  0
    1.6182   -3.7323    1.2940 H   0  0  0  0  0  0  0  0  0  0  0  0
    4.9053   -5.7666    0.9490 H   0  0  0  0  0  0  0  0  0  0  0  0
    4.3402   -4.8798   -0.4906 H   0  0  0  0  0  0  0  0  0  0  0  0
    3.1896   -5.8102    0.4952 H   0  0  0  0  0  0  0  0  0  0  0  0
    2.7591   -5.0758    2.9422 H   0  0  0  0  0  0  0  0  0  0  0  0
    4.4896   -4.8643    3.2629 H   0  0  0  0  0  0  0  0  0  0  0  0
    3.3782   -3.5014    3.5150 H   0  0  0  0  0  0  0  0  0  0  0  0
    6.9039   -2.5519    1.6982 H   0  0  0  0  0  0  0  0  0  0  0  0
    6.2829   -4.0532    2.4073 H   0  0  0  0  0  0  0  0  0  0  0  0
    6.6172   -3.9711    0.6564 H   0  0  0  0  0  0  0  0  0  0  0  0
   -0.5466    0.9138    2.1165 H   0  0  0  0  0  0  0  0  0  0  0  0
   -0.5964   -0.8518    2.2064 H   0  0  0  0  0  0  0  0  0  0  0  0
    0.8608   -1.0513   -0.0627 H   0  0  0  0  0  0  0  0  0  0  0  0
  1 19  1  0  0  0  0
  1 18  1  0  0  0  0
  1 17  1  0  0  0  0
  2 20  1  0  0  0  0
  2  1  1  0  0  0  0
  3 22  1  0  0  0  0
  3 23  1  0  0  0  0
  3  2  1  0  0  0  0
  4 24  1  6  0  0  0
  4  3  1  0  0  0  0
  5  4  1  0  0  0  0
  5 25  1  0  0  0  0
  5 26  1  0  0  0  0
  6  5  1  0  0  0  0
  7  6  1  0  0  0  0
  7 27  1  0  0  0  0
  8  7  1  0  0  0  0
  8  9  1  0  0  0  0
  9 10  1  0  0  0  0
  9 14  1  0  0  0  0
 10 13  1  0  0  0  0
 11  6  1  0  0  0  0
 11 32  1  0  0  0  0
 11 10  1  0  0  0  0
 12 33  1  0  0  0  0
 12 10  1  0  0  0  0
 13 36  1  0  0  0  0
 13 37  1  0  0  0  0
 13 38  1  0  0  0  0
 14 39  1  0  0  0  0
 14 40  1  0  0  0  0
 15 42  1  0  0  0  0
 15 43  1  0  0  0  0
 15  4  1  0  0  0  0
 16 15  1  0  0  0  0
 21  2  1  0  0  0  0
 28  7  1  0  0  0  0
 29  8  1  0  0  0  0
 30  8  1  0  0  0  0
 31 11  1  0  0  0  0
 34 12  1  0  0  0  0
 35 12  1  0  0  0  0
 41 14  1  0  0  0  0
 44 16  1  0  0  0  0
M  END
