314975198.xyz
 OpenBabel08132112113D
SCCC(CCN(Cc1cccnc1)C)C
 38 38  0  0  1  0  0  0  0  0999 V2000
    0.0000    0.0000    0.0000 S   0  0  0  0  0  0  0  0  0  0  0  0
   -0.0000    0.0000    1.8388 C   0  0  0  0  0  0  0  0  0  0  0  0
    1.3841    0.0000    2.4881 C   0  0  0  0  0  0  0  0  0  0  0  0
    2.2684   -1.2206    2.1861 C   0  0  1  0  0  0  0  0  0  0  0  0
    3.6421   -1.1134    2.8682 C   0  0  0  0  0  0  0  0  0  0  0  0
    4.5015    0.0500    2.3757 C   0  0  0  0  0  0  0  0  0  0  0  0
    5.8126    0.1188    3.0074 N   0  0  0  0  0  0  0  0  0  0  0  0
    6.7076   -1.0067    2.7363 C   0  0  0  0  0  0  0  0  0  0  0  0
    7.1154   -1.1699    1.2841 C   0  0  2  0  0  0  0  0  0  0  0  0
    8.2161   -0.4949    0.7409 C   0  0  0  0  0  0  0  0  0  0  0  0
    8.5010   -0.6272   -0.6182 C   0  0  0  0  0  0  0  0  0  0  0  0
    7.6694   -1.4372   -1.3971 C   0  0  0  0  0  0  0  0  0  0  0  0
    6.6210   -2.0966   -0.8992 N   0  0  0  0  0  0  0  0  0  0  0  0
    6.3608   -1.9602    0.4016 C   0  0  0  0  0  0  0  0  0  0  0  0
    6.4424    1.4121    2.8343 C   0  0  0  0  0  0  0  0  0  0  0  0
    1.5848   -2.5351    2.5773 C   0  0  0  0  0  0  0  0  0  0  0  0
    0.4000   -1.2805   -0.1697 H   0  0  0  0  0  0  0  0  0  0  0  0
   -0.6227   -0.8338    2.1941 H   0  0  0  0  0  0  0  0  0  0  0  0
   -0.5354    0.9248    2.1017 H   0  0  0  0  0  0  0  0  0  0  0  0
    1.2453    0.0740    3.5837 H   0  0  0  0  0  0  0  0  0  0  0  0
    1.9054    0.9175    2.1736 H   0  0  0  0  0  0  0  0  0  0  0  0
    2.4445   -1.2371    1.0950 H   0  0  0  0  0  0  0  0  0  0  0  0
    3.5184   -1.0267    3.9622 H   0  0  0  0  0  0  0  0  0  0  0  0
    4.1731   -2.0636    2.6977 H   0  0  0  0  0  0  0  0  0  0  0  0
    4.5691    0.0136    1.2644 H   0  0  0  0  0  0  0  0  0  0  0  0
    3.9927    0.9974    2.6104 H   0  0  0  0  0  0  0  0  0  0  0  0
    7.6087   -0.8689    3.3556 H   0  0  0  0  0  0  0  0  0  0  0  0
    6.2265   -1.9325    3.0848 H   0  0  0  0  0  0  0  0  0  0  0  0
    8.8511    0.1223    1.3827 H   0  0  0  0  0  0  0  0  0  0  0  0
    9.3548   -0.1165   -1.0693 H   0  0  0  0  0  0  0  0  0  0  0  0
    7.8644   -1.5613   -2.4688 H   0  0  0  0  0  0  0  0  0  0  0  0
    5.4990   -2.5215    0.7839 H   0  0  0  0  0  0  0  0  0  0  0  0
    6.6586    1.6766    1.7754 H   0  0  0  0  0  0  0  0  0  0  0  0
    7.3948    1.4443    3.3879 H   0  0  0  0  0  0  0  0  0  0  0  0
    5.7895    2.1998    3.2429 H   0  0  0  0  0  0  0  0  0  0  0  0
    0.6428   -2.6953    2.0304 H   0  0  0  0  0  0  0  0  0  0  0  0
    1.3516   -2.5528    3.6557 H   0  0  0  0  0  0  0  0  0  0  0  0
    2.2369   -3.3968    2.3641 H   0  0  0  0  0  0  0  0  0  0  0  0
  1  2  1  0  0  0  0
  2 19  1  0  0  0  0
  2 18  1  0  0  0  0
  2  3  1  0  0  0  0
  3 20  1  0  0  0  0
  4 22  1  6  0  0  0
  4  3  1  0  0  0  0
  4 16  1  0  0  0  0
  4  5  1  0  0  0  0
  5 23  1  0  0  0  0
  6 26  1  0  0  0  0
  6  5  1  0  0  0  0
  6  7  1  0  0  0  0
  8  7  1  0  0  0  0
  8 28  1  0  0  0  0
  8 27  1  0  0  0  0
  9  8  1  6  0  0  0
 10  9  1  0  0  0  0
 10 29  1  0  0  0  0
 11 10  2  0  0  0  0
 12 13  2  0  0  0  0
 12 11  1  0  0  0  0
 13 14  2  0  0  0  0
 14 32  1  0  0  0  0
 14  9  1  0  0  0  0
 15  7  1  0  0  0  0
 15 35  1  0  0  0  0
 15 34  1  0  0  0  0
 16 37  1  0  0  0  0
 17  1  1  0  0  0  0
 21  3  1  0  0  0  0
 24  5  1  0  0  0  0
 25  6  1  0  0  0  0
 30 11  1  0  0  0  0
 31 12  1  0  0  0  0
 33 15  1  0  0  0  0
 36 16  1  0  0  0  0
 38 16  1  0  0  0  0
M  RAD  1   9   2
M  END
