314985446.xyz
 OpenBabel08132112113D
N#CCCN(CC1(CS)CCOCC1)C
 35 35  0  0  0  0  0  0  0  0999 V2000
    0.1725    1.4643    8.4816 N   0  0  0  0  0  0  0  0  0  0  0  0
    0.9709    1.5825    7.6498 C   0  0  0  0  0  0  0  0  0  0  0  0
    1.9599    1.7549    6.5876 C   0  0  0  0  0  0  0  0  0  0  0  0
    1.3653    2.2031    5.2211 C   0  0  0  0  0  0  0  0  0  0  0  0
    0.5738    1.2366    4.4985 N   0  0  0  0  0  0  0  0  0  0  0  0
    1.2810    0.0705    3.9898 C   0  0  0  0  0  0  0  0  0  0  0  0
    1.4174   -0.0000    2.4400 C   0  0  0  0  0  0  0  0  0  0  0  0
    0.0000    0.0000    1.8466 C   0  0  0  0  0  0  0  0  0  0  0  0
    0.0000    0.0000    0.0000 S   0  0  0  0  0  0  0  0  0  0  0  0
    2.1742   -1.3093    2.0802 C   0  0  0  0  0  0  0  0  0  0  0  0
    3.6775   -1.0660    1.8955 C   0  0  0  0  0  0  0  0  0  0  0  0
    4.1454   -0.0683    2.7824 O   0  0  0  0  0  0  0  0  0  0  0  0
    3.6699    1.2203    2.4366 C   0  0  0  0  0  0  0  0  0  0  0  0
    2.2194    1.2086    1.9176 C   0  0  0  0  0  0  0  0  0  0  0  0
   -0.7516    0.9730    5.0339 C   0  0  0  0  0  0  0  0  0  0  0  0
    2.6913    2.5078    6.9262 H   0  0  0  0  0  0  0  0  0  0  0  0
    2.5162    0.8112    6.4644 H   0  0  0  0  0  0  0  0  0  0  0  0
    0.7613    3.1106    5.3808 H   0  0  0  0  0  0  0  0  0  0  0  0
    2.2199    2.5034    4.5967 H   0  0  0  0  0  0  0  0  0  0  0  0
    0.7705   -0.8504    4.3247 H   0  0  0  0  0  0  0  0  0  0  0  0
    2.2991    0.0118    4.4063 H   0  0  0  0  0  0  0  0  0  0  0  0
   -0.5381   -0.8966    2.1906 H   0  0  0  0  0  0  0  0  0  0  0  0
   -0.5354    0.8916    2.1998 H   0  0  0  0  0  0  0  0  0  0  0  0
   -1.3029   -0.3328   -0.1378 H   0  0  0  0  0  0  0  0  0  0  0  0
    1.7624   -1.7405    1.1547 H   0  0  0  0  0  0  0  0  0  0  0  0
    2.0090   -2.0501    2.8800 H   0  0  0  0  0  0  0  0  0  0  0  0
    3.8976   -0.7758    0.8485 H   0  0  0  0  0  0  0  0  0  0  0  0
    4.2562   -1.9769    2.1078 H   0  0  0  0  0  0  0  0  0  0  0  0
    3.7632    1.8267    3.3509 H   0  0  0  0  0  0  0  0  0  0  0  0
    4.3341    1.6798    1.6769 H   0  0  0  0  0  0  0  0  0  0  0  0
    1.7054    2.1406    2.2002 H   0  0  0  0  0  0  0  0  0  0  0  0
    2.2212    1.1817    0.8171 H   0  0  0  0  0  0  0  0  0  0  0  0
   -1.3913    0.5224    4.2599 H   0  0  0  0  0  0  0  0  0  0  0  0
   -1.2235    1.9173    5.3451 H   0  0  0  0  0  0  0  0  0  0  0  0
   -0.7564    0.2945    5.9102 H   0  0  0  0  0  0  0  0  0  0  0  0
  2  1  3  0  0  0  0
  3 16  1  0  0  0  0
  3  2  1  0  0  0  0
  4 18  1  0  0  0  0
  4  3  1  0  0  0  0
  5 15  1  0  0  0  0
  5  4  1  0  0  0  0
  6 20  1  0  0  0  0
  6 21  1  0  0  0  0
  6  5  1  0  0  0  0
  7  6  1  0  0  0  0
  8 22  1  0  0  0  0
  8 23  1  0  0  0  0
  8  7  1  0  0  0  0
  9  8  1  0  0  0  0
 10  7  1  0  0  0  0
 10 26  1  0  0  0  0
 11 10  1  0  0  0  0
 11 28  1  0  0  0  0
 11 12  1  0  0  0  0
 13 12  1  0  0  0  0
 13 29  1  0  0  0  0
 14 31  1  0  0  0  0
 14 13  1  0  0  0  0
 14  7  1  0  0  0  0
 15 34  1  0  0  0  0
 15 35  1  0  0  0  0
 17  3  1  0  0  0  0
 19  4  1  0  0  0  0
 24  9  1  0  0  0  0
 25 10  1  0  0  0  0
 27 11  1  0  0  0  0
 30 13  1  0  0  0  0
 32 14  1  0  0  0  0
 33 15  1  0  0  0  0
M  END
