314946907.xyz
 OpenBabel08132112113D
Cc1ccc2c(n1)n(CCc1nccs1)c(n2)S
 30 32  0  0  0  0  0  0  0  0999 V2000
   -2.0034    0.1076    7.2294 C   0  0  0  0  0  0  0  0  0  0  0  0
   -1.0863    0.0745    6.0356 C   0  0  0  0  0  0  0  0  0  0  0  0
    0.3186    0.0574    6.1872 C   0  0  0  0  0  0  0  0  0  0  0  0
    1.1717    0.0290    5.0786 C   0  0  0  0  0  0  0  0  0  0  0  0
    0.5669    0.0177    3.8207 C   0  0  0  0  0  0  0  0  0  0  0  0
   -0.8524    0.0313    3.7963 C   0  0  0  0  0  0  0  0  0  0  0  0
   -1.6766    0.0629    4.8266 N   0  0  0  0  0  0  0  0  0  0  0  0
   -1.1977    0.0057    2.4522 N   0  0  0  0  0  0  0  0  0  0  0  0
   -2.5475    0.0698    1.9302 C   0  0  0  0  0  0  0  0  0  0  0  0
   -3.0350    1.5157    1.7675 C   0  0  0  0  0  0  0  0  0  0  0  0
   -4.4035    1.5593    1.1579 C   0  0  0  0  0  0  0  0  0  0  0  0
   -4.7882    0.7996    0.1720 N   0  0  0  0  0  0  0  0  0  0  0  0
   -6.0828    1.0624   -0.1951 C   0  0  0  0  0  0  0  0  0  0  0  0
   -6.7143    2.0444    0.5220 C   0  0  0  0  0  0  0  0  0  0  0  0
   -5.6371    2.6706    1.7232 S   0  0  0  0  0  0  0  0  0  0  0  0
   -0.0000    0.0000    1.7609 C   0  0  0  0  0  0  0  0  0  0  0  0
    1.0635   -0.0000    2.5284 N   0  0  0  0  0  0  0  0  0  0  0  0
    0.0000    0.0000    0.0000 S   0  0  0  0  0  0  0  0  0  0  0  0
   -2.6655   -0.7734    7.2287 H   0  0  0  0  0  0  0  0  0  0  0  0
   -2.6550    0.9953    7.1880 H   0  0  0  0  0  0  0  0  0  0  0  0
   -1.4449    0.1257    8.1756 H   0  0  0  0  0  0  0  0  0  0  0  0
    0.7390    0.0688    7.1947 H   0  0  0  0  0  0  0  0  0  0  0  0
    2.2579    0.0180    5.1882 H   0  0  0  0  0  0  0  0  0  0  0  0
   -3.1980   -0.4673    2.6347 H   0  0  0  0  0  0  0  0  0  0  0  0
   -2.5923   -0.4514    0.9640 H   0  0  0  0  0  0  0  0  0  0  0  0
   -3.0303    2.0176    2.7462 H   0  0  0  0  0  0  0  0  0  0  0  0
   -2.3290    2.0599    1.1159 H   0  0  0  0  0  0  0  0  0  0  0  0
   -6.5388    0.4985   -1.0107 H   0  0  0  0  0  0  0  0  0  0  0  0
   -7.7299    2.4196    0.4128 H   0  0  0  0  0  0  0  0  0  0  0  0
    1.3499   -0.0224   -0.0565 H   0  0  0  0  0  0  0  0  0  0  0  0
  1 21  1  0  0  0  0
  2  3  1  0  0  0  0
  2  1  1  0  0  0  0
  3 22  1  0  0  0  0
  4 23  1  0  0  0  0
  4  3  2  0  0  0  0
  5  4  1  0  0  0  0
  6  5  1  0  0  0  0
  6  7  2  0  0  0  0
  7  2  2  0  0  0  0
  8  6  1  0  0  0  0
  9  8  1  0  0  0  0
  9 24  1  0  0  0  0
 10  9  1  0  0  0  0
 10 26  1  0  0  0  0
 11 15  1  0  0  0  0
 11 10  1  0  0  0  0
 12 11  2  0  0  0  0
 13 12  2  0  0  0  0
 13 14  1  0  0  0  0
 14 15  1  0  0  0  0
 16  8  1  0  0  0  0
 16 17  2  0  0  0  0
 17  5  2  0  0  0  0
 18 16  1  0  0  0  0
 19  1  1  0  0  0  0
 20  1  1  0  0  0  0
 25  9  1  0  0  0  0
 27 10  1  0  0  0  0
 28 13  1  0  0  0  0
 29 14  1  0  0  0  0
 30 18  1  0  0  0  0
M  RAD  1  14   2
M  END
