314959581.xyz
 OpenBabel08132112113D
CCCc1nn(c2c1nc(n2C(CC)CC)S)C
 40 41  0  0  1  0  0  0  0  0999 V2000
    4.7557    1.1795    5.7208 C   0  0  0  0  0  0  0  0  0  0  0  0
    3.3297    1.1830    5.1750 C   0  0  0  0  0  0  0  0  0  0  0  0
    2.4760    0.0332    5.7292 C   0  0  0  0  0  0  0  0  0  0  0  0
    1.0910    0.0115    5.1645 C   0  0  0  0  0  0  0  0  0  0  0  0
    0.0121    0.0209    5.9475 N   0  0  0  0  0  0  0  0  0  0  0  0
   -1.1006    0.0219    5.1422 N   0  0  0  0  0  0  0  0  0  0  0  0
   -0.7049   -0.0035    3.8438 C   0  0  2  0  0  0  0  0  0  0  0  0
    0.6787   -0.0011    3.7978 C   0  0  0  0  0  0  0  0  0  0  0  0
    1.1038    0.0000    2.4805 N   0  0  0  0  0  0  0  0  0  0  0  0
   -0.0000   -0.0000    1.7732 C   0  0  0  0  0  0  0  0  0  0  0  0
   -1.1800   -0.0166    2.5472 N   0  0  0  0  0  0  0  0  0  0  0  0
   -2.6043    0.1179    2.2008 C   0  0  0  0  0  0  0  0  0  0  0  0
   -2.9860   -0.6577    0.9346 C   0  0  0  0  0  0  0  0  0  0  0  0
   -4.4980   -0.7873    0.7544 C   0  0  0  0  0  0  0  0  0  0  0  0
   -3.0443    1.5945    2.2216 C   0  0  0  0  0  0  0  0  0  0  0  0
   -2.4815    2.4683    1.1032 C   0  0  0  0  0  0  0  0  0  0  0  0
    0.0000    0.0000    0.0000 S   0  0  0  0  0  0  0  0  0  0  0  0
   -2.4116   -0.0670    5.7345 C   0  0  0  0  0  0  0  0  0  0  0  0
    5.2772    0.2415    5.4664 H   0  0  0  0  0  0  0  0  0  0  0  0
    5.3487    2.0123    5.3106 H   0  0  0  0  0  0  0  0  0  0  0  0
    4.7643    1.2720    6.8199 H   0  0  0  0  0  0  0  0  0  0  0  0
    2.8361    2.1410    5.4138 H   0  0  0  0  0  0  0  0  0  0  0  0
    3.3462    1.1143    4.0739 H   0  0  0  0  0  0  0  0  0  0  0  0
    2.9785   -0.9244    5.4988 H   0  0  0  0  0  0  0  0  0  0  0  0
    2.4027    0.0972    6.8264 H   0  0  0  0  0  0  0  0  0  0  0  0
   -3.1296   -0.3810    3.0313 H   0  0  0  0  0  0  0  0  0  0  0  0
   -2.5287   -1.6580    0.9964 H   0  0  0  0  0  0  0  0  0  0  0  0
   -2.5580   -0.1769    0.0430 H   0  0  0  0  0  0  0  0  0  0  0  0
   -4.7317   -1.4195   -0.1154 H   0  0  0  0  0  0  0  0  0  0  0  0
   -4.9781    0.1896    0.5887 H   0  0  0  0  0  0  0  0  0  0  0  0
   -4.9714   -1.2470    1.6380 H   0  0  0  0  0  0  0  0  0  0  0  0
   -2.7498    2.0137    3.1983 H   0  0  0  0  0  0  0  0  0  0  0  0
   -4.1466    1.6203    2.2024 H   0  0  0  0  0  0  0  0  0  0  0  0
   -1.3816    2.4604    1.0971 H   0  0  0  0  0  0  0  0  0  0  0  0
   -2.8184    2.1332    0.1101 H   0  0  0  0  0  0  0  0  0  0  0  0
   -2.8099    3.5114    1.2291 H   0  0  0  0  0  0  0  0  0  0  0  0
    1.3484    0.0877   -0.0292 H   0  0  0  0  0  0  0  0  0  0  0  0
   -3.1023    0.6581    5.2760 H   0  0  0  0  0  0  0  0  0  0  0  0
   -2.8420   -1.0793    5.6403 H   0  0  0  0  0  0  0  0  0  0  0  0
   -2.3006    0.1713    6.7994 H   0  0  0  0  0  0  0  0  0  0  0  0
  1 21  1  0  0  0  0
  2 22  1  0  0  0  0
  2  1  1  0  0  0  0
  2  3  1  0  0  0  0
  3 25  1  0  0  0  0
  4  3  1  0  0  0  0
  4  5  2  0  0  0  0
  6 18  1  0  0  0  0
  6  5  1  0  0  0  0
  7  8  1  6  0  0  0
  7  6  1  0  0  0  0
  8  4  1  0  0  0  0
  9  8  2  0  0  0  0
 10  9  2  0  0  0  0
 10 11  1  0  0  0  0
 11  7  1  0  0  0  0
 12 15  1  0  0  0  0
 12 11  1  0  0  0  0
 12 26  1  0  0  0  0
 13 27  1  0  0  0  0
 13 12  1  0  0  0  0
 14 13  1  0  0  0  0
 14 31  1  0  0  0  0
 15 32  1  0  0  0  0
 16 36  1  0  0  0  0
 16 15  1  0  0  0  0
 17 10  1  0  0  0  0
 18 40  1  0  0  0  0
 19  1  1  0  0  0  0
 20  1  1  0  0  0  0
 23  2  1  0  0  0  0
 24  3  1  0  0  0  0
 28 13  1  0  0  0  0
 29 14  1  0  0  0  0
 30 14  1  0  0  0  0
 33 15  1  0  0  0  0
 34 16  1  0  0  0  0
 35 16  1  0  0  0  0
 37 17  1  0  0  0  0
 38 18  1  0  0  0  0
 39 18  1  0  0  0  0
M  RAD  1   7   2
M  END
