315032287.xyz
 OpenBabel08132112113D
CC(Cn1c(S)nnc1c1ccc(c(c1)Cl)F)C
 31 32  0  0  0  0  0  0  0  0999 V2000
    3.1173   -2.2715    3.4245 C   0  0  0  0  0  0  0  0  0  0  0  0
    2.9764   -1.6861    2.0162 C   0  0  0  0  0  0  0  0  0  0  0  0
    2.5055   -0.2180    2.0226 C   0  0  0  0  0  0  0  0  0  0  0  0
    1.1480    0.0000    2.5196 N   0  0  0  0  0  0  0  0  0  0  0  0
    0.0000    0.0000    1.7618 C   0  0  0  0  0  0  0  0  0  0  0  0
    0.0000    0.0000    0.0000 S   0  0  0  0  0  0  0  0  0  0  0  0
   -1.0673    0.0561    2.5231 N   0  0  0  0  0  0  0  0  0  0  0  0
   -0.6374    0.0989    3.8207 N   0  0  0  0  0  0  0  0  0  0  0  0
    0.6774    0.0721    3.8243 C   0  0  0  0  0  0  0  0  0  0  0  0
    1.4908    0.1273    5.0473 C   0  0  0  0  0  0  0  0  0  0  0  0
    2.6392    0.9269    5.1615 C   0  0  0  0  0  0  0  0  0  0  0  0
    3.3680    0.9546    6.3503 C   0  0  0  0  0  0  0  0  0  0  0  0
    2.9456    0.1960    7.4375 C   0  0  0  0  0  0  0  0  0  0  0  0
    1.7849   -0.5843    7.3508 C   0  0  0  0  0  0  0  0  0  0  0  0
    1.0623   -0.6148    6.1600 C   0  0  0  0  0  0  0  0  0  0  0  0
    1.2731   -1.5089    8.7285 Cl  0  0  0  0  0  0  0  0  0  0  0  0
    3.6459    0.2211    8.5706 F   0  0  0  0  0  0  0  0  0  0  0  0
    2.1079   -2.5839    1.1316 C   0  0  0  0  0  0  0  0  0  0  0  0
    3.5729   -3.2726    3.3758 H   0  0  0  0  0  0  0  0  0  0  0  0
    2.1370   -2.3803    3.9131 H   0  0  0  0  0  0  0  0  0  0  0  0
    3.7447   -1.6422    4.0733 H   0  0  0  0  0  0  0  0  0  0  0  0
    3.9862   -1.6405    1.5682 H   0  0  0  0  0  0  0  0  0  0  0  0
    3.1957    0.3850    2.6247 H   0  0  0  0  0  0  0  0  0  0  0  0
    2.5366    0.1894    1.0004 H   0  0  0  0  0  0  0  0  0  0  0  0
   -1.3268    0.2555   -0.0464 H   0  0  0  0  0  0  0  0  0  0  0  0
    2.9558    1.5589    4.3313 H   0  0  0  0  0  0  0  0  0  0  0  0
    4.2611    1.5723    6.4597 H   0  0  0  0  0  0  0  0  0  0  0  0
    0.1580   -1.2187    6.0894 H   0  0  0  0  0  0  0  0  0  0  0  0
    2.0407   -2.2076    0.0999 H   0  0  0  0  0  0  0  0  0  0  0  0
    2.5251   -3.6020    1.0954 H   0  0  0  0  0  0  0  0  0  0  0  0
    1.0822   -2.6617    1.5263 H   0  0  0  0  0  0  0  0  0  0  0  0
  1 20  1  0  0  0  0
  1 21  1  0  0  0  0
  2  3  1  0  0  0  0
  2  1  1  0  0  0  0
  3  4  1  0  0  0  0
  3 23  1  0  0  0  0
  4  9  1  0  0  0  0
  5  4  1  0  0  0  0
  5  7  2  0  0  0  0
  6  5  1  0  0  0  0
  7  8  1  0  0  0  0
  8  9  2  0  0  0  0
  9 10  1  0  0  0  0
 10 11  2  0  0  0  0
 10 15  1  0  0  0  0
 11 12  1  0  0  0  0
 12 27  1  0  0  0  0
 12 13  2  0  0  0  0
 13 17  1  0  0  0  0
 14 13  1  0  0  0  0
 14 16  1  0  0  0  0
 15 14  2  0  0  0  0
 18 31  1  0  0  0  0
 18  2  1  0  0  0  0
 19  1  1  0  0  0  0
 22  2  1  0  0  0  0
 24  3  1  0  0  0  0
 25  6  1  0  0  0  0
 26 11  1  0  0  0  0
 28 15  1  0  0  0  0
 29 18  1  0  0  0  0
 30 18  1  0  0  0  0
M  END
