315023168.xyz
 OpenBabel08132112113D
CCc1cnc(n1CCc1ccc(cc1)OC)S
 36 37  0  0  1  0  0  0  0  0999 V2000
   -2.4212    1.3790    5.2092 C   0  0  0  0  0  0  0  0  0  0  0  0
   -1.8169   -0.0090    4.9445 C   0  0  0  0  0  0  0  0  0  0  0  0
   -0.8202   -0.0394    3.8306 C   0  0  2  0  0  0  0  0  0  0  0  0
    0.5571   -0.0231    3.8328 C   0  0  0  0  0  0  0  0  0  0  0  0
    1.0557   -0.0000    2.5484 N   0  0  0  0  0  0  0  0  0  0  0  0
    0.0000   -0.0000    1.7710 C   0  0  0  0  0  0  0  0  0  0  0  0
   -1.1752   -0.0090    2.4808 N   0  0  0  0  0  0  0  0  0  0  0  0
   -2.5061   -0.1475    1.9191 C   0  0  0  0  0  0  0  0  0  0  0  0
   -2.8899   -1.6108    1.6401 C   0  0  0  0  0  0  0  0  0  0  0  0
   -4.2518   -1.7162    1.0025 C   0  0  0  0  0  0  0  0  0  0  0  0
   -4.4083   -1.5598   -0.3865 C   0  0  0  0  0  0  0  0  0  0  0  0
   -5.6636   -1.5998   -0.9811 C   0  0  0  0  0  0  0  0  0  0  0  0
   -6.8126   -1.7970   -0.1959 C   0  0  0  0  0  0  0  0  0  0  0  0
   -6.6770   -1.9534    1.1907 C   0  0  0  0  0  0  0  0  0  0  0  0
   -5.4040   -1.9090    1.7704 C   0  0  0  0  0  0  0  0  0  0  0  0
   -7.9949   -1.8249   -0.8606 O   0  0  0  0  0  0  0  0  0  0  0  0
   -9.1830   -2.0230   -0.1311 C   0  0  0  0  0  0  0  0  0  0  0  0
    0.0000    0.0000    0.0000 S   0  0  0  0  0  0  0  0  0  0  0  0
   -1.6305    2.1032    5.4577 H   0  0  0  0  0  0  0  0  0  0  0  0
   -2.9540    1.7655    4.3259 H   0  0  0  0  0  0  0  0  0  0  0  0
   -3.1370    1.3464    6.0461 H   0  0  0  0  0  0  0  0  0  0  0  0
   -2.6263   -0.7362    4.7538 H   0  0  0  0  0  0  0  0  0  0  0  0
   -1.3064   -0.3630    5.8539 H   0  0  0  0  0  0  0  0  0  0  0  0
    1.2156   -0.0233    4.7008 H   0  0  0  0  0  0  0  0  0  0  0  0
   -2.5506    0.4360    0.9861 H   0  0  0  0  0  0  0  0  0  0  0  0
   -3.2316    0.3089    2.6062 H   0  0  0  0  0  0  0  0  0  0  0  0
   -2.1227   -2.0505    0.9834 H   0  0  0  0  0  0  0  0  0  0  0  0
   -2.8610   -2.1714    2.5879 H   0  0  0  0  0  0  0  0  0  0  0  0
   -3.5237   -1.4094   -1.0123 H   0  0  0  0  0  0  0  0  0  0  0  0
   -5.7875   -1.4852   -2.0594 H   0  0  0  0  0  0  0  0  0  0  0  0
   -7.5474   -2.1132    1.8263 H   0  0  0  0  0  0  0  0  0  0  0  0
   -5.3130   -2.0365    2.8531 H   0  0  0  0  0  0  0  0  0  0  0  0
   -9.3485   -1.2206    0.6107 H   0  0  0  0  0  0  0  0  0  0  0  0
   -9.1853   -2.9952    0.3944 H   0  0  0  0  0  0  0  0  0  0  0  0
  -10.0049   -2.0099   -0.8591 H   0  0  0  0  0  0  0  0  0  0  0  0
    1.3486    0.0397   -0.0587 H   0  0  0  0  0  0  0  0  0  0  0  0
  1 19  1  0  0  0  0
  1 21  1  0  0  0  0
  2  1  1  0  0  0  0
  2 23  1  0  0  0  0
  3  4  1  0  0  0  0
  3  2  1  1  0  0  0
  4 24  1  0  0  0  0
  5  4  2  0  0  0  0
  6  7  1  0  0  0  0
  6  5  2  0  0  0  0
  7  3  1  0  0  0  0
  8  7  1  0  0  0  0
  8 26  1  0  0  0  0
  9  8  1  0  0  0  0
  9 28  1  0  0  0  0
 10  9  1  0  0  0  0
 10 15  2  0  0  0  0
 11 10  1  0  0  0  0
 12 11  2  0  0  0  0
 12 13  1  0  0  0  0
 13 14  2  0  0  0  0
 14 15  1  0  0  0  0
 14 31  1  0  0  0  0
 15 32  1  0  0  0  0
 16 13  1  0  0  0  0
 16 17  1  0  0  0  0
 17 34  1  0  0  0  0
 17 33  1  0  0  0  0
 18  6  1  0  0  0  0
 20  1  1  0  0  0  0
 22  2  1  0  0  0  0
 25  8  1  0  0  0  0
 27  9  1  0  0  0  0
 29 11  1  0  0  0  0
 30 12  1  0  0  0  0
 35 17  1  0  0  0  0
 36 18  1  0  0  0  0
M  RAD  1   3   2
M  END
