315143226.xyz
 OpenBabel08132112113D
Fc1cc(F)c2c(c1)n(C1CCOCC1)c(n2)S
 30 32  0  0  1  0  0  0  0  0999 V2000
   -1.3836   -0.0082    7.3835 F   0  0  0  0  0  0  0  0  0  0  0  0
   -0.7451   -0.0053    6.2034 C   0  0  0  0  0  0  0  0  0  0  0  0
    0.6590   -0.0033    6.2172 C   0  0  0  0  0  0  0  0  0  0  0  0
    1.3505   -0.0008    5.0123 C   0  0  0  0  0  0  0  0  0  0  0  0
    2.6836    0.0010    5.0124 F   0  0  0  0  0  0  0  0  0  0  0  0
    0.6455   -0.0007    3.7998 C   0  0  0  0  0  0  0  0  0  0  0  0
   -0.7720   -0.0017    3.8434 C   0  0  2  0  0  0  0  0  0  0  0  0
   -1.5023   -0.0049    5.0376 C   0  0  0  0  0  0  0  0  0  0  0  0
   -1.1719    0.0012    2.5126 N   0  0  0  0  0  0  0  0  0  0  0  0
   -2.5597   -0.0143    2.0572 C   0  0  0  0  0  0  0  0  0  0  0  0
   -2.9242   -1.2797    1.2716 C   0  0  0  0  0  0  0  0  0  0  0  0
   -4.4479   -1.2964    1.0284 C   0  0  0  0  0  0  0  0  0  0  0  0
   -5.0134    0.0027    1.0475 O   0  0  0  0  0  0  0  0  0  0  0  0
   -4.1933    0.9635    0.4145 C   0  0  0  0  0  0  0  0  0  0  0  0
   -2.9434    1.2532    1.2650 C   0  0  0  0  0  0  0  0  0  0  0  0
    0.0000    0.0000    1.7659 C   0  0  0  0  0  0  0  0  0  0  0  0
    1.0878    0.0000    2.4916 N   0  0  0  0  0  0  0  0  0  0  0  0
    0.0000    0.0000    0.0000 S   0  0  0  0  0  0  0  0  0  0  0  0
    1.1983   -0.0037    7.1643 H   0  0  0  0  0  0  0  0  0  0  0  0
   -2.5904   -0.0056    5.0906 H   0  0  0  0  0  0  0  0  0  0  0  0
   -3.1618   -0.0242    2.9751 H   0  0  0  0  0  0  0  0  0  0  0  0
   -2.6134   -2.1748    1.8311 H   0  0  0  0  0  0  0  0  0  0  0  0
   -2.3745   -1.2970    0.3183 H   0  0  0  0  0  0  0  0  0  0  0  0
   -4.9606   -1.8566    1.8256 H   0  0  0  0  0  0  0  0  0  0  0  0
   -4.6716   -1.8011    0.0675 H   0  0  0  0  0  0  0  0  0  0  0  0
   -4.8015    1.8696    0.2827 H   0  0  0  0  0  0  0  0  0  0  0  0
   -3.9011    0.6147   -0.5964 H   0  0  0  0  0  0  0  0  0  0  0  0
   -3.1270    2.0745    1.9741 H   0  0  0  0  0  0  0  0  0  0  0  0
   -2.1135    1.5672    0.6140 H   0  0  0  0  0  0  0  0  0  0  0  0
    1.3510    0.0171   -0.0468 H   0  0  0  0  0  0  0  0  0  0  0  0
  2  3  1  0  0  0  0
  2  1  1  0  0  0  0
  3 19  1  0  0  0  0
  4  5  1  0  0  0  0
  4  3  2  0  0  0  0
  6  4  1  0  0  0  0
  7  6  1  6  0  0  0
  7  8  1  0  0  0  0
  8 20  1  0  0  0  0
  8  2  2  0  0  0  0
  9  7  1  0  0  0  0
 10  9  1  0  0  0  0
 10 21  1  0  0  0  0
 11 22  1  0  0  0  0
 11 10  1  0  0  0  0
 12 13  1  0  0  0  0
 12 11  1  0  0  0  0
 12 24  1  0  0  0  0
 14 13  1  0  0  0  0
 14 15  1  0  0  0  0
 15 28  1  0  0  0  0
 15 10  1  0  0  0  0
 16 17  2  0  0  0  0
 16  9  1  0  0  0  0
 17  6  2  0  0  0  0
 18 16  1  0  0  0  0
 23 11  1  0  0  0  0
 25 12  1  0  0  0  0
 26 14  1  0  0  0  0
 27 14  1  0  0  0  0
 29 15  1  0  0  0  0
 30 18  1  0  0  0  0
M  RAD  1   7   2
M  END
