315115921.xyz
 OpenBabel08132112113D
SCCCn1ncc(cc1=O)N1CCCC1
 33 34  0  0  0  0  0  0  0  0999 V2000
    0.0000    0.0000    0.0000 S   0  0  0  0  0  0  0  0  0  0  0  0
    0.0000   -0.0000    1.8399 C   0  0  0  0  0  0  0  0  0  0  0  0
    1.3851   -0.0000    2.4811 C   0  0  0  0  0  0  0  0  0  0  0  0
    2.2598   -1.1821    2.0656 C   0  0  0  0  0  0  0  0  0  0  0  0
    3.5909   -1.1082    2.6612 N   0  0  0  0  0  0  0  0  0  0  0  0
    3.7919   -1.8159    3.7623 N   0  0  0  0  0  0  0  0  0  0  0  0
    4.9513   -1.7732    4.3518 C   0  0  0  0  0  0  0  0  0  0  0  0
    6.0543   -0.9744    3.8645 C   0  0  0  0  0  0  0  0  0  0  0  0
    5.8217   -0.2290    2.7199 C   0  0  0  0  0  0  0  0  0  0  0  0
    4.5458   -0.2441    2.0568 C   0  0  0  0  0  0  0  0  0  0  0  0
    4.2307    0.4029    1.0638 O   0  0  0  0  0  0  0  0  0  0  0  0
    7.2462   -0.9841    4.5221 N   0  0  0  0  0  0  0  0  0  0  0  0
    8.4200   -0.2704    4.0303 C   0  0  0  0  0  0  0  0  0  0  0  0
    9.5538   -0.7793    4.9262 C   0  0  0  0  0  0  0  0  0  0  0  0
    8.8397   -1.0931    6.2465 C   0  0  0  0  0  0  0  0  0  0  0  0
    7.4958   -1.6709    5.7884 C   0  0  0  0  0  0  0  0  0  0  0  0
    0.8709    1.0257   -0.1487 H   0  0  0  0  0  0  0  0  0  0  0  0
   -0.5606   -0.9099    2.1098 H   0  0  0  0  0  0  0  0  0  0  0  0
   -0.5854    0.8586    2.2017 H   0  0  0  0  0  0  0  0  0  0  0  0
    1.2670   -0.0051    3.5791 H   0  0  0  0  0  0  0  0  0  0  0  0
    1.9136    0.9293    2.2147 H   0  0  0  0  0  0  0  0  0  0  0  0
    1.8209   -2.1360    2.3881 H   0  0  0  0  0  0  0  0  0  0  0  0
    2.3773   -1.1847    0.9749 H   0  0  0  0  0  0  0  0  0  0  0  0
    5.0472   -2.3953    5.2429 H   0  0  0  0  0  0  0  0  0  0  0  0
    6.5749    0.4194    2.2763 H   0  0  0  0  0  0  0  0  0  0  0  0
    8.2821    0.8245    4.1219 H   0  0  0  0  0  0  0  0  0  0  0  0
    8.5913   -0.4870    2.9629 H   0  0  0  0  0  0  0  0  0  0  0  0
   10.3683   -0.0489    5.0326 H   0  0  0  0  0  0  0  0  0  0  0  0
    9.9832   -1.7007    4.4997 H   0  0  0  0  0  0  0  0  0  0  0  0
    8.6713   -0.1639    6.8150 H   0  0  0  0  0  0  0  0  0  0  0  0
    9.3970   -1.7856    6.8934 H   0  0  0  0  0  0  0  0  0  0  0  0
    6.6912   -1.4776    6.5157 H   0  0  0  0  0  0  0  0  0  0  0  0
    7.5558   -2.7670    5.6448 H   0  0  0  0  0  0  0  0  0  0  0  0
  1  2  1  0  0  0  0
  2 18  1  0  0  0  0
  2 19  1  0  0  0  0
  2  3  1  0  0  0  0
  3 20  1  0  0  0  0
  4 22  1  0  0  0  0
  4  3  1  0  0  0  0
  4  5  1  0  0  0  0
  5  6  1  0  0  0  0
  6  7  2  0  0  0  0
  7 24  1  0  0  0  0
  8  7  1  0  0  0  0
  8 12  1  0  0  0  0
  9  8  2  0  0  0  0
 10  5  1  0  0  0  0
 10  9  1  0  0  0  0
 11 10  2  0  0  0  0
 12 16  1  0  0  0  0
 13 26  1  0  0  0  0
 13 12  1  0  0  0  0
 13 14  1  0  0  0  0
 14 28  1  0  0  0  0
 14 15  1  0  0  0  0
 15 30  1  0  0  0  0
 15 31  1  0  0  0  0
 16 15  1  0  0  0  0
 16 32  1  0  0  0  0
 17  1  1  0  0  0  0
 21  3  1  0  0  0  0
 23  4  1  0  0  0  0
 25  9  1  0  0  0  0
 27 13  1  0  0  0  0
 29 14  1  0  0  0  0
 33 16  1  0  0  0  0
M  END
