315150324.xyz
 OpenBabel08132112113D
SCC(c1ccccc1)COc1ccc(cc1)C
 36 37  0  0  1  0  0  0  0  0999 V2000
    0.0000    0.0000    0.0000 S   0  0  0  0  0  0  0  0  0  0  0  0
   -0.0000   -0.0000    1.8374 C   0  0  0  0  0  0  0  0  0  0  0  0
    1.3789   -0.0000    2.5334 C   0  0  2  0  0  0  0  0  0  0  0  0
    2.0851    1.3422    2.4988 C   0  0  0  0  0  0  0  0  0  0  0  0
    2.6191    1.8719    1.3118 C   0  0  0  0  0  0  0  0  0  0  0  0
    3.2538    3.1166    1.3093 C   0  0  0  0  0  0  0  0  0  0  0  0
    3.3696    3.8542    2.4904 C   0  0  0  0  0  0  0  0  0  0  0  0
    2.8436    3.3382    3.6773 C   0  0  0  0  0  0  0  0  0  0  0  0
    2.2090    2.0938    3.6773 C   0  0  0  0  0  0  0  0  0  0  0  0
    2.2866   -1.1134    2.0178 C   0  0  0  0  0  0  0  0  0  0  0  0
    1.5730   -2.3335    2.0984 O   0  0  0  0  0  0  0  0  0  0  0  0
    2.1534   -3.4742    1.6354 C   0  0  0  0  0  0  0  0  0  0  0  0
    3.4474   -3.5452    1.1067 C   0  0  0  0  0  0  0  0  0  0  0  0
    3.9430   -4.7750    0.6547 C   0  0  0  0  0  0  0  0  0  0  0  0
    3.1829   -5.9463    0.7144 C   0  0  0  0  0  0  0  0  0  0  0  0
    1.8855   -5.8510    1.2512 C   0  0  0  0  0  0  0  0  0  0  0  0
    1.3743   -4.6411    1.7049 C   0  0  0  0  0  0  0  0  0  0  0  0
    3.7208   -7.2680    0.2266 C   0  0  0  0  0  0  0  0  0  0  0  0
    0.2848   -1.3147   -0.1424 H   0  0  0  0  0  0  0  0  0  0  0  0
   -0.5785   -0.8714    2.1697 H   0  0  0  0  0  0  0  0  0  0  0  0
   -0.5564    0.9029    2.1267 H   0  0  0  0  0  0  0  0  0  0  0  0
    1.1649   -0.2305    3.5909 H   0  0  0  0  0  0  0  0  0  0  0  0
    2.5180    1.3171    0.3784 H   0  0  0  0  0  0  0  0  0  0  0  0
    3.6597    3.5129    0.3752 H   0  0  0  0  0  0  0  0  0  0  0  0
    3.8679    4.8266    2.4859 H   0  0  0  0  0  0  0  0  0  0  0  0
    2.9286    3.9047    4.6080 H   0  0  0  0  0  0  0  0  0  0  0  0
    1.8012    1.6948    4.6103 H   0  0  0  0  0  0  0  0  0  0  0  0
    3.2094   -1.1587    2.6233 H   0  0  0  0  0  0  0  0  0  0  0  0
    2.5775   -0.9156    0.9716 H   0  0  0  0  0  0  0  0  0  0  0  0
    4.0780   -2.6591    1.0414 H   0  0  0  0  0  0  0  0  0  0  0  0
    4.9559   -4.8136    0.2442 H   0  0  0  0  0  0  0  0  0  0  0  0
    1.2629   -6.7483    1.3136 H   0  0  0  0  0  0  0  0  0  0  0  0
    0.3677   -4.5694    2.1215 H   0  0  0  0  0  0  0  0  0  0  0  0
    4.7445   -7.1666   -0.1626 H   0  0  0  0  0  0  0  0  0  0  0  0
    3.7421   -8.0174    1.0356 H   0  0  0  0  0  0  0  0  0  0  0  0
    3.0948   -7.6845   -0.5804 H   0  0  0  0  0  0  0  0  0  0  0  0
  1  2  1  0  0  0  0
  2 21  1  0  0  0  0
  2 20  1  0  0  0  0
  2  3  1  0  0  0  0
  3 22  1  1  0  0  0
  4  3  1  0  0  0  0
  4  9  2  0  0  0  0
  5  4  1  0  0  0  0
  6  5  2  0  0  0  0
  6  7  1  0  0  0  0
  7  8  2  0  0  0  0
  8 26  1  0  0  0  0
  9  8  1  0  0  0  0
  9 27  1  0  0  0  0
 10 11  1  0  0  0  0
 10  3  1  0  0  0  0
 10 28  1  0  0  0  0
 12 17  1  0  0  0  0
 12 11  1  0  0  0  0
 13 12  2  0  0  0  0
 14 15  2  0  0  0  0
 14 13  1  0  0  0  0
 15 16  1  0  0  0  0
 16 32  1  0  0  0  0
 16 17  2  0  0  0  0
 17 33  1  0  0  0  0
 18 15  1  0  0  0  0
 18 35  1  0  0  0  0
 19  1  1  0  0  0  0
 23  5  1  0  0  0  0
 24  6  1  0  0  0  0
 25  7  1  0  0  0  0
 29 10  1  0  0  0  0
 30 13  1  0  0  0  0
 31 14  1  0  0  0  0
 34 18  1  0  0  0  0
 36 18  1  0  0  0  0
M  END
