315215799.xyz
 OpenBabel08132112113D
CCOC(=O)C(n1c(S)nc2c(c1=O)ccs2)C
 30 31  0  0  1  0  0  0  0  0999 V2000
   -4.6972    3.4143   -0.1372 C   0  0  0  0  0  0  0  0  0  0  0  0
   -3.6676    2.5299   -0.8159 C   0  0  0  0  0  0  0  0  0  0  0  0
   -3.4332    1.3196   -0.0679 O   0  0  0  0  0  0  0  0  0  0  0  0
   -2.5813    1.3983    0.9618 C   0  0  0  0  0  0  0  0  0  0  0  0
   -2.0005    2.3980    1.2990 O   0  0  0  0  0  0  0  0  0  0  0  0
   -2.4985    0.0710    1.7173 C   0  0  2  0  0  0  0  0  0  0  0  0
   -1.2158   -0.0144    2.4249 N   0  0  0  0  0  0  0  0  0  0  0  0
   -0.0000    0.0000    1.7790 C   0  0  0  0  0  0  0  0  0  0  0  0
    0.0000    0.0000    0.0000 S   0  0  0  0  0  0  0  0  0  0  0  0
    1.1541   -0.0000    2.3797 N   0  0  0  0  0  0  0  0  0  0  0  0
    1.1259   -0.0042    3.7310 C   0  0  0  0  0  0  0  0  0  0  0  0
   -0.0259   -0.0216    4.5160 C   0  0  2  0  0  0  0  0  0  0  0  0
   -1.3126   -0.0185    3.8610 C   0  0  0  0  0  0  0  0  0  0  0  0
   -2.4028   -0.0201    4.4053 O   0  0  0  0  0  0  0  0  0  0  0  0
    0.2500   -0.0255    5.9192 C   0  0  0  0  0  0  0  0  0  0  0  0
    1.5925   -0.0126    6.1748 C   0  0  0  0  0  0  0  0  0  0  0  0
    2.5624    0.0056    4.7208 S   0  0  0  0  0  0  0  0  0  0  0  0
   -2.8811   -1.1960    0.9533 C   0  0  0  0  0  0  0  0  0  0  0  0
   -4.3218    3.7734    0.8318 H   0  0  0  0  0  0  0  0  0  0  0  0
   -4.9111    4.2910   -0.7689 H   0  0  0  0  0  0  0  0  0  0  0  0
   -5.6390    2.8675    0.0244 H   0  0  0  0  0  0  0  0  0  0  0  0
   -4.0167    2.1820   -1.7981 H   0  0  0  0  0  0  0  0  0  0  0  0
   -2.7097    3.0564   -0.9374 H   0  0  0  0  0  0  0  0  0  0  0  0
   -3.2222    0.1878    2.5413 H   0  0  0  0  0  0  0  0  0  0  0  0
    1.3406    0.1577   -0.0404 H   0  0  0  0  0  0  0  0  0  0  0  0
   -0.5268   -0.0358    6.6831 H   0  0  0  0  0  0  0  0  0  0  0  0
    2.0876   -0.0117    7.1445 H   0  0  0  0  0  0  0  0  0  0  0  0
   -2.8583   -2.0526    1.6423 H   0  0  0  0  0  0  0  0  0  0  0  0
   -3.9006   -1.0876    0.5616 H   0  0  0  0  0  0  0  0  0  0  0  0
   -2.2134   -1.4079    0.1078 H   0  0  0  0  0  0  0  0  0  0  0  0
  1 21  1  0  0  0  0
  1 19  1  0  0  0  0
  2  1  1  0  0  0  0
  2  3  1  0  0  0  0
  3  4  1  0  0  0  0
  4  5  2  0  0  0  0
  4  6  1  0  0  0  0
  6  7  1  0  0  0  0
  6 24  1  1  0  0  0
  7 13  1  0  0  0  0
  8 10  2  0  0  0  0
  8  7  1  0  0  0  0
  9  8  1  0  0  0  0
 10 11  2  0  0  0  0
 11 17  1  0  0  0  0
 12 11  1  1  0  0  0
 12 15  1  0  0  0  0
 13 14  2  0  0  0  0
 13 12  1  0  0  0  0
 15 16  2  0  0  0  0
 15 26  1  0  0  0  0
 16 27  1  0  0  0  0
 17 16  1  0  0  0  0
 18 28  1  0  0  0  0
 18  6  1  0  0  0  0
 20  1  1  0  0  0  0
 22  2  1  0  0  0  0
 23  2  1  0  0  0  0
 25  9  1  0  0  0  0
 29 18  1  0  0  0  0
 30 18  1  0  0  0  0
M  RAD  1  12   2
M  END
