315217711.xyz
 OpenBabel08132112113D
SCC1(CCC1)CN1CC(C)OC(C1)(C)C
 41 42  0  0  1  0  0  0  0  0999 V2000
    0.0000    0.0000    0.0000 S   0  0  0  0  0  0  0  0  0  0  0  0
   -0.0000   -0.0000    1.8351 C   0  0  0  0  0  0  0  0  0  0  0  0
    1.3672   -0.0000    2.5330 C   0  0  0  0  0  0  0  0  0  0  0  0
    1.2069   -0.5486    3.9876 C   0  0  0  0  0  0  0  0  0  0  0  0
    1.6678   -1.9419    3.4971 C   0  0  0  0  0  0  0  0  0  0  0  0
    2.2080   -1.2737    2.2108 C   0  0  0  0  0  0  0  0  0  0  0  0
    2.0649    1.3676    2.4996 C   0  0  0  0  0  0  0  0  0  0  0  0
    2.2869    1.9515    1.1862 N   0  0  0  0  0  0  0  0  0  0  0  0
    3.2962    1.3672    0.3145 C   0  0  0  0  0  0  0  0  0  0  0  0
    4.6943    1.9825    0.4783 C   0  0  2  0  0  0  0  0  0  0  0  0
    5.5086    1.4244    1.6489 C   0  0  0  0  0  0  0  0  0  0  0  0
    4.6296    3.4068    0.4718 O   0  0  0  0  0  0  0  0  0  0  0  0
    3.6298    4.0852    1.2486 C   0  0  0  0  0  0  0  0  0  0  0  0
    2.2634    3.3962    1.0452 C   0  0  0  0  0  0  0  0  0  0  0  0
    3.5905    5.4953    0.6631 C   0  0  0  0  0  0  0  0  0  0  0  0
    4.0230    4.1573    2.7319 C   0  0  0  0  0  0  0  0  0  0  0  0
    0.7047    1.1521   -0.0863 H   0  0  0  0  0  0  0  0  0  0  0  0
   -0.5533   -0.9133    2.1017 H   0  0  0  0  0  0  0  0  0  0  0  0
   -0.5985    0.8504    2.2001 H   0  0  0  0  0  0  0  0  0  0  0  0
    1.9358   -0.0900    4.6746 H   0  0  0  0  0  0  0  0  0  0  0  0
    0.2052   -0.4629    4.4385 H   0  0  0  0  0  0  0  0  0  0  0  0
    0.8252   -2.6211    3.2987 H   0  0  0  0  0  0  0  0  0  0  0  0
    2.3945   -2.4746    4.1279 H   0  0  0  0  0  0  0  0  0  0  0  0
    3.2882   -1.0745    2.2808 H   0  0  0  0  0  0  0  0  0  0  0  0
    1.9982   -1.7575    1.2457 H   0  0  0  0  0  0  0  0  0  0  0  0
    1.4246    2.0706    3.0589 H   0  0  0  0  0  0  0  0  0  0  0  0
    2.9938    1.2670    3.0972 H   0  0  0  0  0  0  0  0  0  0  0  0
    3.3324    0.2799    0.4552 H   0  0  0  0  0  0  0  0  0  0  0  0
    2.9744    1.5370   -0.7294 H   0  0  0  0  0  0  0  0  0  0  0  0
    5.2580    1.7466   -0.4408 H   0  0  0  0  0  0  0  0  0  0  0  0
    4.9926    1.5074    2.6134 H   0  0  0  0  0  0  0  0  0  0  0  0
    6.4635    1.9657    1.7265 H   0  0  0  0  0  0  0  0  0  0  0  0
    5.7277    0.3580    1.4777 H   0  0  0  0  0  0  0  0  0  0  0  0
    1.9260    3.6295    0.0180 H   0  0  0  0  0  0  0  0  0  0  0  0
    1.5205    3.8229    1.7367 H   0  0  0  0  0  0  0  0  0  0  0  0
    3.3685    5.4513   -0.4133 H   0  0  0  0  0  0  0  0  0  0  0  0
    4.5682    5.9837    0.7902 H   0  0  0  0  0  0  0  0  0  0  0  0
    2.8238    6.1086    1.1617 H   0  0  0  0  0  0  0  0  0  0  0  0
    5.0547    4.5283    2.8232 H   0  0  0  0  0  0  0  0  0  0  0  0
    3.9646    3.1843    3.2327 H   0  0  0  0  0  0  0  0  0  0  0  0
    3.3553    4.8484    3.2702 H   0  0  0  0  0  0  0  0  0  0  0  0
  1  2  1  0  0  0  0
  2 18  1  0  0  0  0
  2 19  1  0  0  0  0
  2  3  1  0  0  0  0
  3  4  1  0  0  0  0
  4 21  1  0  0  0  0
  4 20  1  0  0  0  0
  5  4  1  0  0  0  0
  5 23  1  0  0  0  0
  6 24  1  0  0  0  0
  6  3  1  0  0  0  0
  6  5  1  0  0  0  0
  7  3  1  0  0  0  0
  7 26  1  0  0  0  0
  7 27  1  0  0  0  0
  8  7  1  0  0  0  0
  9 28  1  0  0  0  0
  9 10  1  0  0  0  0
  9  8  1  0  0  0  0
 10 30  1  6  0  0  0
 10 11  1  0  0  0  0
 11 32  1  0  0  0  0
 11 31  1  0  0  0  0
 12 10  1  0  0  0  0
 12 13  1  0  0  0  0
 13 16  1  0  0  0  0
 14  8  1  0  0  0  0
 14 13  1  0  0  0  0
 14 35  1  0  0  0  0
 15 37  1  0  0  0  0
 15 38  1  0  0  0  0
 15 13  1  0  0  0  0
 16 39  1  0  0  0  0
 16 40  1  0  0  0  0
 16 41  1  0  0  0  0
 17  1  1  0  0  0  0
 22  5  1  0  0  0  0
 25  6  1  0  0  0  0
 29  9  1  0  0  0  0
 33 11  1  0  0  0  0
 34 14  1  0  0  0  0
 36 15  1  0  0  0  0
M  END
