315290919.xyz
 OpenBabel08132112113D
Cc1ccccc1Cn1nc(cc1S)C(C)(C)C
 38 39  0  0  0  0  0  0  0  0999 V2000
    1.9014   -2.8900    2.7096 C   0  0  0  0  0  0  0  0  0  0  0  0
    2.5317   -2.5217    1.3904 C   0  0  0  0  0  0  0  0  0  0  0  0
    2.8425   -3.5270    0.4634 C   0  0  0  0  0  0  0  0  0  0  0  0
    3.4132   -3.2333   -0.7764 C   0  0  0  0  0  0  0  0  0  0  0  0
    3.6873   -1.9080   -1.1155 C   0  0  0  0  0  0  0  0  0  0  0  0
    3.3810   -0.8948   -0.2068 C   0  0  0  0  0  0  0  0  0  0  0  0
    2.8105   -1.1810    1.0403 C   0  0  0  0  0  0  0  0  0  0  0  0
    2.5258   -0.0343    1.9883 C   0  0  0  0  0  0  0  0  0  0  0  0
    1.1598    0.0000    2.4870 N   0  0  0  0  0  0  0  0  0  0  0  0
    0.9277   -0.0141    3.8162 N   0  0  0  0  0  0  0  0  0  0  0  0
   -0.3953   -0.0125    3.9617 C   0  0  0  0  0  0  0  0  0  0  0  0
   -1.0367   -0.0139    2.6926 C   0  0  0  0  0  0  0  0  0  0  0  0
   -0.0000    0.0000    1.7684 C   0  0  0  0  0  0  0  0  0  0  0  0
    0.0000    0.0000    0.0000 S   0  0  0  0  0  0  0  0  0  0  0  0
   -1.0479   -0.0252    5.3310 C   0  0  0  0  0  0  0  0  0  0  0  0
   -1.9205    1.2367    5.4858 C   0  0  0  0  0  0  0  0  0  0  0  0
   -1.9359   -1.2801    5.4534 C   0  0  0  0  0  0  0  0  0  0  0  0
    0.0229   -0.0466    6.4313 C   0  0  0  0  0  0  0  0  0  0  0  0
    2.3414   -2.3394    3.5538 H   0  0  0  0  0  0  0  0  0  0  0  0
    2.0078   -3.9673    2.9023 H   0  0  0  0  0  0  0  0  0  0  0  0
    0.8249   -2.6513    2.7180 H   0  0  0  0  0  0  0  0  0  0  0  0
    2.6319   -4.5671    0.7267 H   0  0  0  0  0  0  0  0  0  0  0  0
    3.6420   -4.0410   -1.4759 H   0  0  0  0  0  0  0  0  0  0  0  0
    4.1306   -1.6618   -2.0830 H   0  0  0  0  0  0  0  0  0  0  0  0
    3.5766    0.1476   -0.4716 H   0  0  0  0  0  0  0  0  0  0  0  0
    2.7535    0.9196    1.4863 H   0  0  0  0  0  0  0  0  0  0  0  0
    3.1491   -0.0930    2.8921 H   0  0  0  0  0  0  0  0  0  0  0  0
   -2.1006   -0.0280    2.4715 H   0  0  0  0  0  0  0  0  0  0  0  0
   -1.1440    0.7150   -0.1047 H   0  0  0  0  0  0  0  0  0  0  0  0
   -2.4153    1.2456    6.4706 H   0  0  0  0  0  0  0  0  0  0  0  0
   -1.3095    2.1486    5.3995 H   0  0  0  0  0  0  0  0  0  0  0  0
   -2.7040    1.2806    4.7131 H   0  0  0  0  0  0  0  0  0  0  0  0
   -1.3363   -2.1966    5.3395 H   0  0  0  0  0  0  0  0  0  0  0  0
   -2.7227   -1.2934    4.6830 H   0  0  0  0  0  0  0  0  0  0  0  0
   -2.4275   -1.3107    6.4394 H   0  0  0  0  0  0  0  0  0  0  0  0
   -0.4563   -0.0521    7.4232 H   0  0  0  0  0  0  0  0  0  0  0  0
    0.6788    0.8331    6.3628 H   0  0  0  0  0  0  0  0  0  0  0  0
    0.6611   -0.9378    6.3454 H   0  0  0  0  0  0  0  0  0  0  0  0
  1 21  1  0  0  0  0
  1 20  1  0  0  0  0
  1 19  1  0  0  0  0
  2  1  1  0  0  0  0
  3 22  1  0  0  0  0
  3  2  2  0  0  0  0
  4  3  1  0  0  0  0
  5  4  2  0  0  0  0
  5  6  1  0  0  0  0
  6  7  2  0  0  0  0
  7  2  1  0  0  0  0
  7  8  1  0  0  0  0
  8  9  1  0  0  0  0
  8 27  1  0  0  0  0
  9 10  1  0  0  0  0
 10 11  2  0  0  0  0
 11 15  1  0  0  0  0
 12 11  1  0  0  0  0
 13  9  1  0  0  0  0
 13 12  2  0  0  0  0
 14 13  1  0  0  0  0
 15 17  1  0  0  0  0
 15 16  1  0  0  0  0
 15 18  1  0  0  0  0
 16 30  1  0  0  0  0
 17 35  1  0  0  0  0
 18 36  1  0  0  0  0
 23  4  1  0  0  0  0
 24  5  1  0  0  0  0
 25  6  1  0  0  0  0
 26  8  1  0  0  0  0
 28 12  1  0  0  0  0
 29 14  1  0  0  0  0
 31 16  1  0  0  0  0
 32 16  1  0  0  0  0
 33 17  1  0  0  0  0
 34 17  1  0  0  0  0
 37 18  1  0  0  0  0
 38 18  1  0  0  0  0
M  END
