315395790.xyz
 OpenBabel08132112113D
CCC(CN(c1ccccc1F)CC)CS
 36 36  0  0  1  0  0  0  0  0999 V2000
    3.6228    1.2639    2.6833 C   0  0  0  0  0  0  0  0  0  0  0  0
    2.1530    1.3046    2.2622 C   0  0  0  0  0  0  0  0  0  0  0  0
    1.3811   -0.0000    2.4989 C   0  0  1  0  0  0  0  0  0  0  0  0
    1.2163   -0.2928    4.0016 C   0  0  0  0  0  0  0  0  0  0  0  0
    0.5938   -1.5748    4.2828 N   0  0  0  0  0  0  0  0  0  0  0  0
    1.2689   -2.7461    3.9368 C   0  0  0  0  0  0  0  0  0  0  0  0
    2.6600   -2.7996    3.7119 C   0  0  0  0  0  0  0  0  0  0  0  0
    3.2964   -3.9851    3.3366 C   0  0  0  0  0  0  0  0  0  0  0  0
    2.5690   -5.1657    3.1822 C   0  0  0  0  0  0  0  0  0  0  0  0
    1.1863   -5.1431    3.3917 C   0  0  0  0  0  0  0  0  0  0  0  0
    0.5645   -3.9553    3.7448 C   0  0  0  0  0  0  0  0  0  0  0  0
   -0.7786   -3.9534    3.8920 F   0  0  0  0  0  0  0  0  0  0  0  0
   -0.3878   -1.5899    5.3698 C   0  0  0  0  0  0  0  0  0  0  0  0
   -1.7763   -1.1235    4.9440 C   0  0  0  0  0  0  0  0  0  0  0  0
   -0.0000   -0.0000    1.8330 C   0  0  0  0  0  0  0  0  0  0  0  0
    0.0000    0.0000    0.0000 S   0  0  0  0  0  0  0  0  0  0  0  0
    4.1534    0.4417    2.1754 H   0  0  0  0  0  0  0  0  0  0  0  0
    3.7463    1.1191    3.7680 H   0  0  0  0  0  0  0  0  0  0  0  0
    4.1360    2.2022    2.4206 H   0  0  0  0  0  0  0  0  0  0  0  0
    1.6336    2.1339    2.7786 H   0  0  0  0  0  0  0  0  0  0  0  0
    2.1063    1.5355    1.1858 H   0  0  0  0  0  0  0  0  0  0  0  0
    1.9592   -0.8212    2.0433 H   0  0  0  0  0  0  0  0  0  0  0  0
    0.5690    0.4860    4.4338 H   0  0  0  0  0  0  0  0  0  0  0  0
    2.1895   -0.1917    4.5194 H   0  0  0  0  0  0  0  0  0  0  0  0
    3.2547   -1.8952    3.8362 H   0  0  0  0  0  0  0  0  0  0  0  0
    4.3763   -3.9808    3.1719 H   0  0  0  0  0  0  0  0  0  0  0  0
    3.0640   -6.0946    2.8930 H   0  0  0  0  0  0  0  0  0  0  0  0
    0.5674   -6.0332    3.2632 H   0  0  0  0  0  0  0  0  0  0  0  0
   -0.0119   -0.9559    6.1968 H   0  0  0  0  0  0  0  0  0  0  0  0
   -0.4485   -2.6081    5.7733 H   0  0  0  0  0  0  0  0  0  0  0  0
   -2.4647   -1.1189    5.8044 H   0  0  0  0  0  0  0  0  0  0  0  0
   -1.7506   -0.1026    4.5309 H   0  0  0  0  0  0  0  0  0  0  0  0
   -2.1815   -1.7960    4.1744 H   0  0  0  0  0  0  0  0  0  0  0  0
   -0.5302   -0.9227    2.1070 H   0  0  0  0  0  0  0  0  0  0  0  0
   -0.6134    0.8411    2.1948 H   0  0  0  0  0  0  0  0  0  0  0  0
    0.2938    1.3077   -0.1787 H   0  0  0  0  0  0  0  0  0  0  0  0
  1 18  1  0  0  0  0
  2  3  1  0  0  0  0
  2  1  1  0  0  0  0
  2 20  1  0  0  0  0
  3 22  1  6  0  0  0
  3  4  1  0  0  0  0
  4  5  1  0  0  0  0
  4 23  1  0  0  0  0
  4 24  1  0  0  0  0
  5 13  1  0  0  0  0
  6  5  1  0  0  0  0
  7 25  1  0  0  0  0
  7  6  2  0  0  0  0
  8  7  1  0  0  0  0
  9  8  2  0  0  0  0
  9 10  1  0  0  0  0
 10 11  2  0  0  0  0
 11 12  1  0  0  0  0
 11  6  1  0  0  0  0
 13 30  1  0  0  0  0
 13 29  1  0  0  0  0
 14 13  1  0  0  0  0
 14 31  1  0  0  0  0
 15 34  1  0  0  0  0
 15 35  1  0  0  0  0
 15  3  1  0  0  0  0
 16 15  1  0  0  0  0
 17  1  1  0  0  0  0
 19  1  1  0  0  0  0
 21  2  1  0  0  0  0
 26  8  1  0  0  0  0
 27  9  1  0  0  0  0
 28 10  1  0  0  0  0
 32 14  1  0  0  0  0
 33 14  1  0  0  0  0
 36 16  1  0  0  0  0
M  END
