315392195.xyz
 OpenBabel08132112113D
SCCOCCN(c1cccc(c1)C)CC
 37 37  0  0  0  0  0  0  0  0999 V2000
    0.0000    0.0000    0.0000 S   0  0  0  0  0  0  0  0  0  0  0  0
    0.0000   -0.0000    1.8302 C   0  0  0  0  0  0  0  0  0  0  0  0
    1.4051    0.0000    2.4266 C   0  0  0  0  0  0  0  0  0  0  0  0
    1.3926   -0.0252    3.8381 O   0  0  0  0  0  0  0  0  0  0  0  0
    1.2153    1.2049    4.5061 C   0  0  0  0  0  0  0  0  0  0  0  0
    0.0365    1.1674    5.4808 C   0  0  0  0  0  0  0  0  0  0  0  0
   -1.2868    1.1714    4.8857 N   0  0  0  0  0  0  0  0  0  0  0  0
   -1.9809   -0.0109    4.6313 C   0  0  0  0  0  0  0  0  0  0  0  0
   -1.3593   -1.2761    4.7668 C   0  0  0  0  0  0  0  0  0  0  0  0
   -2.0765   -2.4433    4.5245 C   0  0  0  0  0  0  0  0  0  0  0  0
   -3.4169   -2.4076    4.1297 C   0  0  0  0  0  0  0  0  0  0  0  0
   -4.0500   -1.1705    3.9690 C   0  0  0  0  0  0  0  0  0  0  0  0
   -3.3308    0.0068    4.2171 C   0  0  0  0  0  0  0  0  0  0  0  0
   -5.4955   -1.0830    3.5443 C   0  0  0  0  0  0  0  0  0  0  0  0
   -1.9327    2.4615    4.6964 C   0  0  0  0  0  0  0  0  0  0  0  0
   -1.9855    2.9547    3.2475 C   0  0  0  0  0  0  0  0  0  0  0  0
    0.5295    1.2364   -0.1571 H   0  0  0  0  0  0  0  0  0  0  0  0
   -0.5879    0.8468    2.2047 H   0  0  0  0  0  0  0  0  0  0  0  0
   -0.5369   -0.9118    2.1273 H   0  0  0  0  0  0  0  0  0  0  0  0
    1.9722    0.8778    2.0568 H   0  0  0  0  0  0  0  0  0  0  0  0
    1.9471   -0.8982    2.0933 H   0  0  0  0  0  0  0  0  0  0  0  0
    1.0731    2.0318    3.7864 H   0  0  0  0  0  0  0  0  0  0  0  0
    2.1326    1.4315    5.0852 H   0  0  0  0  0  0  0  0  0  0  0  0
    0.1235    2.0530    6.1334 H   0  0  0  0  0  0  0  0  0  0  0  0
    0.1506    0.2913    6.1378 H   0  0  0  0  0  0  0  0  0  0  0  0
   -0.2996   -1.3428    4.9993 H   0  0  0  0  0  0  0  0  0  0  0  0
   -1.5681   -3.4052    4.6319 H   0  0  0  0  0  0  0  0  0  0  0  0
   -3.9628   -3.3334    3.9340 H   0  0  0  0  0  0  0  0  0  0  0  0
   -3.8496    0.9538    4.0737 H   0  0  0  0  0  0  0  0  0  0  0  0
   -5.6232   -0.3938    2.6937 H   0  0  0  0  0  0  0  0  0  0  0  0
   -6.1293   -0.7038    4.3642 H   0  0  0  0  0  0  0  0  0  0  0  0
   -5.8884   -2.0661    3.2467 H   0  0  0  0  0  0  0  0  0  0  0  0
   -2.9542    2.4298    5.1139 H   0  0  0  0  0  0  0  0  0  0  0  0
   -1.3862    3.1968    5.3066 H   0  0  0  0  0  0  0  0  0  0  0  0
   -2.4912    2.2286    2.5939 H   0  0  0  0  0  0  0  0  0  0  0  0
   -0.9735    3.1210    2.8471 H   0  0  0  0  0  0  0  0  0  0  0  0
   -2.5347    3.9080    3.1850 H   0  0  0  0  0  0  0  0  0  0  0  0
  1  2  1  0  0  0  0
  2 19  1  0  0  0  0
  2 18  1  0  0  0  0
  2  3  1  0  0  0  0
  3  4  1  0  0  0  0
  4  5  1  0  0  0  0
  5 23  1  0  0  0  0
  5  6  1  0  0  0  0
  6 24  1  0  0  0  0
  6 25  1  0  0  0  0
  7  6  1  0  0  0  0
  8  9  1  0  0  0  0
  8  7  1  0  0  0  0
  9 26  1  0  0  0  0
 10 27  1  0  0  0  0
 10  9  2  0  0  0  0
 11 10  1  0  0  0  0
 12 11  2  0  0  0  0
 12 13  1  0  0  0  0
 13  8  2  0  0  0  0
 14 12  1  0  0  0  0
 14 31  1  0  0  0  0
 15  7  1  0  0  0  0
 15 33  1  0  0  0  0
 15 34  1  0  0  0  0
 16 15  1  0  0  0  0
 17  1  1  0  0  0  0
 20  3  1  0  0  0  0
 21  3  1  0  0  0  0
 22  5  1  0  0  0  0
 28 11  1  0  0  0  0
 29 13  1  0  0  0  0
 30 14  1  0  0  0  0
 32 14  1  0  0  0  0
 35 16  1  0  0  0  0
 36 16  1  0  0  0  0
 37 16  1  0  0  0  0
M  END
