315390660.xyz
 OpenBabel08132112113D
SCCOCCN(Cc1cccc(c1)F)C
 34 34  0  0  0  0  0  0  0  0999 V2000
    0.0000    0.0000    0.0000 S   0  0  0  0  0  0  0  0  0  0  0  0
   -0.0000   -0.0000    1.8404 C   0  0  0  0  0  0  0  0  0  0  0  0
    1.4417   -0.0000    2.3449 C   0  0  0  0  0  0  0  0  0  0  0  0
    2.2499    0.9737    1.7274 O   0  0  0  0  0  0  0  0  0  0  0  0
    2.0249    2.3126    2.1210 C   0  0  0  0  0  0  0  0  0  0  0  0
    2.8761    2.6791    3.3373 C   0  0  0  0  0  0  0  0  0  0  0  0
    2.6122    4.0202    3.8318 N   0  0  0  0  0  0  0  0  0  0  0  0
    2.9770    5.1109    2.9242 C   0  0  0  0  0  0  0  0  0  0  0  0
    4.4633    5.2455    2.6402 C   0  0  0  0  0  0  0  0  0  0  0  0
    5.0606    4.5468    1.5793 C   0  0  0  0  0  0  0  0  0  0  0  0
    6.4397    4.6159    1.3651 C   0  0  0  0  0  0  0  0  0  0  0  0
    7.2506    5.3843    2.2035 C   0  0  0  0  0  0  0  0  0  0  0  0
    6.6480    6.0785    3.2494 C   0  0  0  0  0  0  0  0  0  0  0  0
    5.2766    6.0211    3.4789 C   0  0  0  0  0  0  0  0  0  0  0  0
    7.4109    6.8302    4.0589 F   0  0  0  0  0  0  0  0  0  0  0  0
    3.0689    4.2184    5.1932 C   0  0  0  0  0  0  0  0  0  0  0  0
   -1.3055   -0.3302   -0.1331 H   0  0  0  0  0  0  0  0  0  0  0  0
   -0.5073   -0.9008    2.2176 H   0  0  0  0  0  0  0  0  0  0  0  0
   -0.5518    0.8782    2.2095 H   0  0  0  0  0  0  0  0  0  0  0  0
    1.4326    0.1112    3.4481 H   0  0  0  0  0  0  0  0  0  0  0  0
    1.9107   -0.9682    2.1113 H   0  0  0  0  0  0  0  0  0  0  0  0
    2.2839    2.9322    1.2494 H   0  0  0  0  0  0  0  0  0  0  0  0
    0.9623    2.5108    2.3499 H   0  0  0  0  0  0  0  0  0  0  0  0
    3.9452    2.4998    3.0928 H   0  0  0  0  0  0  0  0  0  0  0  0
    2.6270    1.9766    4.1493 H   0  0  0  0  0  0  0  0  0  0  0  0
    2.6027    6.0470    3.3687 H   0  0  0  0  0  0  0  0  0  0  0  0
    2.4367    4.9760    1.9755 H   0  0  0  0  0  0  0  0  0  0  0  0
    4.4400    3.9490    0.9081 H   0  0  0  0  0  0  0  0  0  0  0  0
    6.8900    4.0684    0.5340 H   0  0  0  0  0  0  0  0  0  0  0  0
    8.3296    5.4589    2.0586 H   0  0  0  0  0  0  0  0  0  0  0  0
    4.8552    6.5933    4.3077 H   0  0  0  0  0  0  0  0  0  0  0  0
    4.1691    4.1262    5.3224 H   0  0  0  0  0  0  0  0  0  0  0  0
    2.5928    3.4771    5.8548 H   0  0  0  0  0  0  0  0  0  0  0  0
    2.7747    5.2205    5.5448 H   0  0  0  0  0  0  0  0  0  0  0  0
  1  2  1  0  0  0  0
  2 19  1  0  0  0  0
  2 18  1  0  0  0  0
  2  3  1  0  0  0  0
  3 20  1  0  0  0  0
  4  5  1  0  0  0  0
  4  3  1  0  0  0  0
  5 23  1  0  0  0  0
  5  6  1  0  0  0  0
  6  7  1  0  0  0  0
  6 25  1  0  0  0  0
  7 16  1  0  0  0  0
  8 26  1  0  0  0  0
  8  7  1  0  0  0  0
  9  8  1  0  0  0  0
  9 14  2  0  0  0  0
 10  9  1  0  0  0  0
 11 10  2  0  0  0  0
 11 12  1  0  0  0  0
 12 13  2  0  0  0  0
 13 14  1  0  0  0  0
 13 15  1  0  0  0  0
 14 31  1  0  0  0  0
 16 32  1  0  0  0  0
 16 34  1  0  0  0  0
 16 33  1  0  0  0  0
 17  1  1  0  0  0  0
 21  3  1  0  0  0  0
 22  5  1  0  0  0  0
 24  6  1  0  0  0  0
 27  8  1  0  0  0  0
 28 10  1  0  0  0  0
 29 11  1  0  0  0  0
 30 12  1  0  0  0  0
M  END
