315300715.xyz
 OpenBabel08132112113D
CC(n1c(S)nnc1N1CCCC(CC1)(C)C)C
 42 43  0  0  0  0  0  0  0  0999 V2000
   -3.2175    1.3382    2.2380 C   0  0  0  0  0  0  0  0  0  0  0  0
   -2.5249   -0.0042    2.0044 C   0  0  0  0  0  0  0  0  0  0  0  0
   -1.1459    0.0079    2.5130 N   0  0  0  0  0  0  0  0  0  0  0  0
    0.0000    0.0000    1.7639 C   0  0  0  0  0  0  0  0  0  0  0  0
    0.0000    0.0000    0.0000 S   0  0  0  0  0  0  0  0  0  0  0  0
    1.0664    0.0000    2.5298 N   0  0  0  0  0  0  0  0  0  0  0  0
    0.6275    0.0157    3.8272 N   0  0  0  0  0  0  0  0  0  0  0  0
   -0.6866    0.0235    3.8281 C   0  0  0  0  0  0  0  0  0  0  0  0
   -1.5247    0.0482    4.9354 N   0  0  0  0  0  0  0  0  0  0  0  0
   -1.6650    1.3513    5.5913 C   0  0  0  0  0  0  0  0  0  0  0  0
   -0.4739    1.7968    6.4473 C   0  0  0  0  0  0  0  0  0  0  0  0
   -0.3847    1.1404    7.8253 C   0  0  0  0  0  0  0  0  0  0  0  0
   -0.2904   -0.4013    7.8809 C   0  0  0  0  0  0  0  0  0  0  0  0
   -1.5427   -1.0535    7.2425 C   0  0  0  0  0  0  0  0  0  0  0  0
   -1.6057   -1.1930    5.7212 C   0  0  0  0  0  0  0  0  0  0  0  0
   -0.2712   -0.8043    9.3668 C   0  0  0  0  0  0  0  0  0  0  0  0
    1.0008   -0.8996    7.2131 C   0  0  0  0  0  0  0  0  0  0  0  0
   -3.3193   -1.1865    2.5578 C   0  0  0  0  0  0  0  0  0  0  0  0
   -3.3915    1.5050    3.3105 H   0  0  0  0  0  0  0  0  0  0  0  0
   -4.1922    1.3523    1.7268 H   0  0  0  0  0  0  0  0  0  0  0  0
   -2.6092    2.1665    1.8451 H   0  0  0  0  0  0  0  0  0  0  0  0
   -2.4188   -0.1489    0.9177 H   0  0  0  0  0  0  0  0  0  0  0  0
    1.3505   -0.0448   -0.0468 H   0  0  0  0  0  0  0  0  0  0  0  0
   -2.5914    1.3447    6.1908 H   0  0  0  0  0  0  0  0  0  0  0  0
   -1.8271    2.0927    4.7936 H   0  0  0  0  0  0  0  0  0  0  0  0
   -0.5517    2.8885    6.5941 H   0  0  0  0  0  0  0  0  0  0  0  0
    0.4475    1.6268    5.8685 H   0  0  0  0  0  0  0  0  0  0  0  0
    0.4896    1.5562    8.3552 H   0  0  0  0  0  0  0  0  0  0  0  0
   -1.2683    1.4448    8.4168 H   0  0  0  0  0  0  0  0  0  0  0  0
   -1.6316   -2.0841    7.6283 H   0  0  0  0  0  0  0  0  0  0  0  0
   -2.4413   -0.5291    7.6106 H   0  0  0  0  0  0  0  0  0  0  0  0
   -0.7921   -1.8551    5.3890 H   0  0  0  0  0  0  0  0  0  0  0  0
   -2.5490   -1.7240    5.4839 H   0  0  0  0  0  0  0  0  0  0  0  0
   -1.2048   -0.5088    9.8738 H   0  0  0  0  0  0  0  0  0  0  0  0
    0.5655   -0.3207    9.8956 H   0  0  0  0  0  0  0  0  0  0  0  0
   -0.1560   -1.8944    9.4800 H   0  0  0  0  0  0  0  0  0  0  0  0
    1.8803   -0.4910    7.7371 H   0  0  0  0  0  0  0  0  0  0  0  0
    1.0763   -0.6083    6.1557 H   0  0  0  0  0  0  0  0  0  0  0  0
    1.0672   -1.9993    7.2678 H   0  0  0  0  0  0  0  0  0  0  0  0
   -2.7767   -2.1307    2.4017 H   0  0  0  0  0  0  0  0  0  0  0  0
   -4.2895   -1.2551    2.0428 H   0  0  0  0  0  0  0  0  0  0  0  0
   -3.5037   -1.0604    3.6327 H   0  0  0  0  0  0  0  0  0  0  0  0
  1 19  1  0  0  0  0
  2  1  1  0  0  0  0
  2  3  1  0  0  0  0
  2 18  1  0  0  0  0
  3  8  1  0  0  0  0
  4  3  1  0  0  0  0
  4  6  2  0  0  0  0
  5  4  1  0  0  0  0
  6  7  1  0  0  0  0
  7  8  2  0  0  0  0
  8  9  1  0  0  0  0
  9 10  1  0  0  0  0
  9 15  1  0  0  0  0
 10 24  1  0  0  0  0
 10 11  1  0  0  0  0
 11 26  1  0  0  0  0
 11 12  1  0  0  0  0
 12 13  1  0  0  0  0
 12 28  1  0  0  0  0
 12 29  1  0  0  0  0
 13 16  1  0  0  0  0
 14 31  1  0  0  0  0
 14 30  1  0  0  0  0
 14 13  1  0  0  0  0
 15 14  1  0  0  0  0
 16 36  1  0  0  0  0
 16 34  1  0  0  0  0
 16 35  1  0  0  0  0
 17 39  1  0  0  0  0
 17 37  1  0  0  0  0
 17 13  1  0  0  0  0
 18 42  1  0  0  0  0
 20  1  1  0  0  0  0
 21  1  1  0  0  0  0
 22  2  1  0  0  0  0
 23  5  1  0  0  0  0
 25 10  1  0  0  0  0
 27 11  1  0  0  0  0
 32 15  1  0  0  0  0
 33 15  1  0  0  0  0
 38 17  1  0  0  0  0
 40 18  1  0  0  0  0
 41 18  1  0  0  0  0
M  END
