315375103.xyz
 OpenBabel08132112113D
Cc1cccc(n1)CN(c1nnc(s1)S)C
 28 29  0  0  0  0  0  0  0  0999 V2000
    1.7451    3.9993    8.8524 C   0  0  0  0  0  0  0  0  0  0  0  0
    0.6959    3.4310    7.9337 C   0  0  0  0  0  0  0  0  0  0  0  0
   -0.3411    4.2206    7.4147 C   0  0  0  0  0  0  0  0  0  0  0  0
   -1.2805    3.6338    6.5658 C   0  0  0  0  0  0  0  0  0  0  0  0
   -1.1650    2.2788    6.2597 C   0  0  0  0  0  0  0  0  0  0  0  0
   -0.1024    1.5623    6.8289 C   0  0  0  0  0  0  0  0  0  0  0  0
    0.8003    2.1277    7.6381 N   0  0  0  0  0  0  0  0  0  0  0  0
    0.1238    0.1020    6.4964 C   0  0  0  0  0  0  0  0  0  0  0  0
    1.0370   -0.0663    5.3626 N   0  0  0  0  0  0  0  0  0  0  0  0
    0.5039   -0.0158    4.1129 C   0  0  0  0  0  0  0  0  0  0  0  0
   -0.7784    0.0075    3.8467 N   0  0  0  0  0  0  0  0  0  0  0  0
   -1.0532    0.0017    2.5143 N   0  0  0  0  0  0  0  0  0  0  0  0
   -0.0000    0.0000    1.7627 C   0  0  0  0  0  0  0  0  0  0  0  0
    1.5231   -0.0000    2.6601 S   0  0  0  0  0  0  0  0  0  0  0  0
    0.0000    0.0000    0.0000 S   0  0  0  0  0  0  0  0  0  0  0  0
    2.4505    0.1925    5.5606 C   0  0  0  0  0  0  0  0  0  0  0  0
    2.7483    3.8484    8.4229 H   0  0  0  0  0  0  0  0  0  0  0  0
    1.5960    5.0728    9.0347 H   0  0  0  0  0  0  0  0  0  0  0  0
    1.7304    3.4705    9.8188 H   0  0  0  0  0  0  0  0  0  0  0  0
   -0.4055    5.2793    7.6748 H   0  0  0  0  0  0  0  0  0  0  0  0
   -2.0947    4.2296    6.1454 H   0  0  0  0  0  0  0  0  0  0  0  0
   -1.8570    1.7757    5.5834 H   0  0  0  0  0  0  0  0  0  0  0  0
   -0.8191   -0.3937    6.2380 H   0  0  0  0  0  0  0  0  0  0  0  0
    0.5749   -0.3941    7.3671 H   0  0  0  0  0  0  0  0  0  0  0  0
   -1.3520    0.0046   -0.0622 H   0  0  0  0  0  0  0  0  0  0  0  0
    3.0524   -0.4647    4.9116 H   0  0  0  0  0  0  0  0  0  0  0  0
    2.7068   -0.0185    6.6062 H   0  0  0  0  0  0  0  0  0  0  0  0
    2.7248    1.2428    5.3526 H   0  0  0  0  0  0  0  0  0  0  0  0
  1 18  1  0  0  0  0
  1 19  1  0  0  0  0
  2  1  1  0  0  0  0
  3 20  1  0  0  0  0
  3  2  1  0  0  0  0
  4  3  2  0  0  0  0
  5  4  1  0  0  0  0
  5  6  1  0  0  0  0
  6  7  2  0  0  0  0
  7  2  2  0  0  0  0
  8  6  1  0  0  0  0
  8 24  1  0  0  0  0
  9 16  1  0  0  0  0
  9  8  1  0  0  0  0
 10  9  1  0  0  0  0
 11 10  2  0  0  0  0
 12 11  1  0  0  0  0
 13 12  2  0  0  0  0
 13 14  1  0  0  0  0
 14 10  1  0  0  0  0
 15 13  1  0  0  0  0
 16 27  1  0  0  0  0
 17  1  1  0  0  0  0
 21  4  1  0  0  0  0
 22  5  1  0  0  0  0
 23  8  1  0  0  0  0
 25 15  1  0  0  0  0
 26 16  1  0  0  0  0
 28 16  1  0  0  0  0
M  RAD  1   5   2
M  END
