315396813.xyz
 OpenBabel08132112113D
COCCN(CC1(CS)CCOCC1)C
 38 38  0  0  0  0  0  0  0  0999 V2000
    4.6628   -5.3801    4.7253 C   0  0  0  0  0  0  0  0  0  0  0  0
    3.4941   -4.6094    4.7400 O   0  0  0  0  0  0  0  0  0  0  0  0
    3.1727   -4.0391    3.4966 C   0  0  0  0  0  0  0  0  0  0  0  0
    1.8666   -3.2578    3.6649 C   0  0  0  0  0  0  0  0  0  0  0  0
    1.4164   -2.5221    2.4993 N   0  0  0  0  0  0  0  0  0  0  0  0
    2.1419   -1.2996    2.1779 C   0  0  0  0  0  0  0  0  0  0  0  0
    1.3810    0.0000    2.5283 C   0  0  0  0  0  0  0  0  0  0  0  0
   -0.0000    0.0000    1.8380 C   0  0  0  0  0  0  0  0  0  0  0  0
    0.0000    0.0000    0.0000 S   0  0  0  0  0  0  0  0  0  0  0  0
    1.1406    0.1135    4.0605 C   0  0  0  0  0  0  0  0  0  0  0  0
    1.0957    1.5825    4.5259 C   0  0  0  0  0  0  0  0  0  0  0  0
    0.6293    2.4439    3.5090 O   0  0  0  0  0  0  0  0  0  0  0  0
    1.5318    2.5395    2.4202 C   0  0  0  0  0  0  0  0  0  0  0  0
    2.2344    1.2076    2.1055 C   0  0  0  0  0  0  0  0  0  0  0  0
    1.0504   -3.3441    1.3628 C   0  0  0  0  0  0  0  0  0  0  0  0
    4.5890   -6.2340    4.0208 H   0  0  0  0  0  0  0  0  0  0  0  0
    5.5519   -4.7820    4.4367 H   0  0  0  0  0  0  0  0  0  0  0  0
    4.8218   -5.7758    5.7392 H   0  0  0  0  0  0  0  0  0  0  0  0
    3.0627   -4.8266    2.7222 H   0  0  0  0  0  0  0  0  0  0  0  0
    3.9858   -3.3651    3.1510 H   0  0  0  0  0  0  0  0  0  0  0  0
    1.0805   -3.9683    3.9731 H   0  0  0  0  0  0  0  0  0  0  0  0
    2.0000   -2.5654    4.5089 H   0  0  0  0  0  0  0  0  0  0  0  0
    3.1208   -1.2714    2.6910 H   0  0  0  0  0  0  0  0  0  0  0  0
    2.3645   -1.2773    1.0984 H   0  0  0  0  0  0  0  0  0  0  0  0
   -0.6105    0.8386    2.1928 H   0  0  0  0  0  0  0  0  0  0  0  0
   -0.5134   -0.9320    2.1147 H   0  0  0  0  0  0  0  0  0  0  0  0
    0.2451    1.3174   -0.1797 H   0  0  0  0  0  0  0  0  0  0  0  0
    0.2100   -0.4112    4.3255 H   0  0  0  0  0  0  0  0  0  0  0  0
    1.9513   -0.3966    4.6046 H   0  0  0  0  0  0  0  0  0  0  0  0
    2.1009    1.9079    4.8638 H   0  0  0  0  0  0  0  0  0  0  0  0
    0.4139    1.7069    5.3799 H   0  0  0  0  0  0  0  0  0  0  0  0
    0.9278    2.8754    1.5624 H   0  0  0  0  0  0  0  0  0  0  0  0
    2.2850    3.3292    2.6176 H   0  0  0  0  0  0  0  0  0  0  0  0
    3.2001    1.1494    2.6355 H   0  0  0  0  0  0  0  0  0  0  0  0
    2.4668    1.1553    1.0303 H   0  0  0  0  0  0  0  0  0  0  0  0
    0.4857   -2.7522    0.6268 H   0  0  0  0  0  0  0  0  0  0  0  0
    1.9140   -3.7921    0.8232 H   0  0  0  0  0  0  0  0  0  0  0  0
    0.4008   -4.1698    1.6954 H   0  0  0  0  0  0  0  0  0  0  0  0
  1  2  1  0  0  0  0
  1 18  1  0  0  0  0
  3  4  1  0  0  0  0
  3  2  1  0  0  0  0
  4 21  1  0  0  0  0
  4 22  1  0  0  0  0
  5  4  1  0  0  0  0
  6  5  1  0  0  0  0
  6  7  1  0  0  0  0
  6 23  1  0  0  0  0
  7 10  1  0  0  0  0
  8 26  1  0  0  0  0
  8 25  1  0  0  0  0
  8  7  1  0  0  0  0
  9  8  1  0  0  0  0
 10 28  1  0  0  0  0
 10 11  1  0  0  0  0
 10 29  1  0  0  0  0
 11 30  1  0  0  0  0
 11 31  1  0  0  0  0
 12 11  1  0  0  0  0
 13 33  1  0  0  0  0
 13 12  1  0  0  0  0
 14 13  1  0  0  0  0
 14  7  1  0  0  0  0
 14 34  1  0  0  0  0
 15 38  1  0  0  0  0
 15  5  1  0  0  0  0
 16  1  1  0  0  0  0
 17  1  1  0  0  0  0
 19  3  1  0  0  0  0
 20  3  1  0  0  0  0
 24  6  1  0  0  0  0
 27  9  1  0  0  0  0
 32 13  1  0  0  0  0
 35 14  1  0  0  0  0
 36 15  1  0  0  0  0
 37 15  1  0  0  0  0
M  END
