315387337.xyz
 OpenBabel08132112113D
CCC1CCCN1CC1(CS)CCOCC1
 41 42  0  0  1  0  0  0  0  0999 V2000
    1.1292   -3.6069   -0.2675 C   0  0  0  0  0  0  0  0  0  0  0  0
    1.0302   -4.4156    1.0212 C   0  0  0  0  0  0  0  0  0  0  0  0
    1.8268   -3.8522    2.2061 C   0  0  2  0  0  0  0  0  0  0  0  0
    1.7576   -4.7784    3.4400 C   0  0  0  0  0  0  0  0  0  0  0  0
    0.6920   -4.1254    4.3214 C   0  0  0  0  0  0  0  0  0  0  0  0
    0.9944   -2.6471    4.1102 C   0  0  0  0  0  0  0  0  0  0  0  0
    1.3095   -2.5426    2.6864 N   0  0  0  0  0  0  0  0  0  0  0  0
    2.0892   -1.3917    2.2764 C   0  0  0  0  0  0  0  0  0  0  0  0
    1.4240    0.0000    2.4404 C   0  0  0  0  0  0  0  0  0  0  0  0
    0.0000    0.0000    1.8465 C   0  0  0  0  0  0  0  0  0  0  0  0
    0.0000    0.0000    0.0000 S   0  0  0  0  0  0  0  0  0  0  0  0
    1.3175    0.4438    3.9335 C   0  0  0  0  0  0  0  0  0  0  0  0
    1.5217    1.9597    4.1034 C   0  0  0  0  0  0  0  0  0  0  0  0
    1.0076    2.6771    3.0044 O   0  0  0  0  0  0  0  0  0  0  0  0
    1.7577    2.4567    1.8197 C   0  0  0  0  0  0  0  0  0  0  0  0
    2.3318    1.0341    1.7386 C   0  0  0  0  0  0  0  0  0  0  0  0
    2.1784   -3.5145   -0.5976 H   0  0  0  0  0  0  0  0  0  0  0  0
    0.7271   -2.5911   -0.1460 H   0  0  0  0  0  0  0  0  0  0  0  0
    0.5701   -4.0929   -1.0832 H   0  0  0  0  0  0  0  0  0  0  0  0
   -0.0262   -4.5064    1.3297 H   0  0  0  0  0  0  0  0  0  0  0  0
    1.3928   -5.4427    0.8362 H   0  0  0  0  0  0  0  0  0  0  0  0
    2.8809   -3.7400    1.8857 H   0  0  0  0  0  0  0  0  0  0  0  0
    2.7236   -4.7758    3.9703 H   0  0  0  0  0  0  0  0  0  0  0  0
    1.5320   -5.8206    3.1708 H   0  0  0  0  0  0  0  0  0  0  0  0
   -0.3191   -4.3626    3.9527 H   0  0  0  0  0  0  0  0  0  0  0  0
    0.7462   -4.4249    5.3785 H   0  0  0  0  0  0  0  0  0  0  0  0
    1.8568   -2.3470    4.7470 H   0  0  0  0  0  0  0  0  0  0  0  0
    0.1497   -1.9985    4.3873 H   0  0  0  0  0  0  0  0  0  0  0  0
    2.3228   -1.5183    1.2101 H   0  0  0  0  0  0  0  0  0  0  0  0
    3.0685   -1.3529    2.8110 H   0  0  0  0  0  0  0  0  0  0  0  0
   -0.5411    0.8900    2.1906 H   0  0  0  0  0  0  0  0  0  0  0  0
   -0.5158   -0.9074    2.1871 H   0  0  0  0  0  0  0  0  0  0  0  0
   -1.2714   -0.4342   -0.1438 H   0  0  0  0  0  0  0  0  0  0  0  0
    0.3350    0.1579    4.3357 H   0  0  0  0  0  0  0  0  0  0  0  0
    2.0716   -0.0820    4.5389 H   0  0  0  0  0  0  0  0  0  0  0  0
    0.9950    2.3247    4.9977 H   0  0  0  0  0  0  0  0  0  0  0  0
    2.5968    2.1927    4.2454 H   0  0  0  0  0  0  0  0  0  0  0  0
    1.0670    2.6373    0.9829 H   0  0  0  0  0  0  0  0  0  0  0  0
    2.5793    3.1981    1.7463 H   0  0  0  0  0  0  0  0  0  0  0  0
    3.3266    0.9896    2.2120 H   0  0  0  0  0  0  0  0  0  0  0  0
    2.4873    0.7662    0.6816 H   0  0  0  0  0  0  0  0  0  0  0  0
  1 18  1  0  0  0  0
  1  2  1  0  0  0  0
  2 20  1  0  0  0  0
  2  3  1  0  0  0  0
  3 22  1  6  0  0  0
  3  7  1  0  0  0  0
  3  4  1  0  0  0  0
  4 23  1  0  0  0  0
  4  5  1  0  0  0  0
  5 26  1  0  0  0  0
  6  5  1  0  0  0  0
  6 28  1  0  0  0  0
  6 27  1  0  0  0  0
  7  6  1  0  0  0  0
  8  9  1  0  0  0  0
  8  7  1  0  0  0  0
  8 30  1  0  0  0  0
  9 12  1  0  0  0  0
 10 32  1  0  0  0  0
 10 31  1  0  0  0  0
 10  9  1  0  0  0  0
 11 10  1  0  0  0  0
 12 13  1  0  0  0  0
 12 34  1  0  0  0  0
 12 35  1  0  0  0  0
 13 37  1  0  0  0  0
 13 36  1  0  0  0  0
 14 13  1  0  0  0  0
 15 14  1  0  0  0  0
 16 15  1  0  0  0  0
 16 40  1  0  0  0  0
 16  9  1  0  0  0  0
 17  1  1  0  0  0  0
 19  1  1  0  0  0  0
 21  2  1  0  0  0  0
 24  4  1  0  0  0  0
 25  5  1  0  0  0  0
 29  8  1  0  0  0  0
 33 11  1  0  0  0  0
 38 15  1  0  0  0  0
 39 15  1  0  0  0  0
 41 16  1  0  0  0  0
M  END
