315359486.xyz
 OpenBabel08132112113D
CCc1ccsc1Cn1c(S)nnc1CC
 31 32  0  0  0  0  0  0  0  0999 V2000
    2.7279   -1.5490   -2.1348 C   0  0  0  0  0  0  0  0  0  0  0  0
    3.5095   -1.0214   -0.9255 C   0  0  0  0  0  0  0  0  0  0  0  0
    3.3586   -1.8804    0.3054 C   0  0  0  0  0  0  0  0  0  0  0  0
    3.6548   -3.2872    0.3055 C   0  0  0  0  0  0  0  0  0  0  0  0
    3.4373   -3.8916    1.5132 C   0  0  0  0  0  0  0  0  0  0  0  0
    2.8677   -2.7675    2.6952 S   0  0  0  0  0  0  0  0  0  0  0  0
    2.9248   -1.4547    1.5449 C   0  0  0  0  0  0  0  0  0  0  0  0
    2.5244   -0.0766    1.9879 C   0  0  0  0  0  0  0  0  0  0  0  0
    1.1606    0.0000    2.4953 N   0  0  0  0  0  0  0  0  0  0  0  0
   -0.0000    0.0000    1.7605 C   0  0  0  0  0  0  0  0  0  0  0  0
    0.0000    0.0000    0.0000 S   0  0  0  0  0  0  0  0  0  0  0  0
   -1.0468    0.0208    2.5464 N   0  0  0  0  0  0  0  0  0  0  0  0
   -0.5798    0.0252    3.8416 N   0  0  0  0  0  0  0  0  0  0  0  0
    0.7295    0.0045    3.8098 C   0  0  0  0  0  0  0  0  0  0  0  0
    1.6434   -0.0072    4.9936 C   0  0  0  0  0  0  0  0  0  0  0  0
    0.8801   -0.0542    6.3159 C   0  0  0  0  0  0  0  0  0  0  0  0
    3.0777   -2.5483   -2.4373 H   0  0  0  0  0  0  0  0  0  0  0  0
    1.6552   -1.6251   -1.9027 H   0  0  0  0  0  0  0  0  0  0  0  0
    2.8482   -0.8784   -2.9999 H   0  0  0  0  0  0  0  0  0  0  0  0
    4.5814   -0.9543   -1.1845 H   0  0  0  0  0  0  0  0  0  0  0  0
    3.1883    0.0087   -0.7092 H   0  0  0  0  0  0  0  0  0  0  0  0
    4.0126   -3.8255   -0.5733 H   0  0  0  0  0  0  0  0  0  0  0  0
    3.5726   -4.9395    1.7761 H   0  0  0  0  0  0  0  0  0  0  0  0
    2.6206    0.6228    1.1452 H   0  0  0  0  0  0  0  0  0  0  0  0
    3.1874    0.2936    2.7836 H   0  0  0  0  0  0  0  0  0  0  0  0
   -1.3257    0.2591   -0.0584 H   0  0  0  0  0  0  0  0  0  0  0  0
    2.3255   -0.8727    4.9179 H   0  0  0  0  0  0  0  0  0  0  0  0
    2.2910    0.8886    4.9615 H   0  0  0  0  0  0  0  0  0  0  0  0
    0.2532   -0.9556    6.3714 H   0  0  0  0  0  0  0  0  0  0  0  0
    1.5802   -0.0565    7.1646 H   0  0  0  0  0  0  0  0  0  0  0  0
    0.2092    0.8112    6.4110 H   0  0  0  0  0  0  0  0  0  0  0  0
  1 18  1  0  0  0  0
  1  2  1  0  0  0  0
  2 21  1  0  0  0  0
  2  3  1  0  0  0  0
  3  4  1  0  0  0  0
  3  7  2  0  0  0  0
  4  5  2  0  0  0  0
  5 23  1  0  0  0  0
  5  6  1  0  0  0  0
  7  8  1  0  0  0  0
  7  6  1  0  0  0  0
  8  9  1  0  0  0  0
  8 25  1  0  0  0  0
  9 14  1  0  0  0  0
 10  9  1  0  0  0  0
 10 12  2  0  0  0  0
 11 10  1  0  0  0  0
 12 13  1  0  0  0  0
 14 13  2  0  0  0  0
 14 15  1  0  0  0  0
 15 16  1  0  0  0  0
 16 29  1  0  0  0  0
 16 31  1  0  0  0  0
 16 30  1  0  0  0  0
 17  1  1  0  0  0  0
 19  1  1  0  0  0  0
 20  2  1  0  0  0  0
 22  4  1  0  0  0  0
 24  8  1  0  0  0  0
 26 11  1  0  0  0  0
 27 15  1  0  0  0  0
 28 15  1  0  0  0  0
M  END
