315446083.xyz
 OpenBabel08132112113D
SCC1(CSCc2ccccc2)CCOCC1
 37 38  0  0  0  0  0  0  0  0999 V2000
    0.0000    0.0000    0.0000 S   0  0  0  0  0  0  0  0  0  0  0  0
    0.0000   -0.0000    1.8355 C   0  0  0  0  0  0  0  0  0  0  0  0
    1.3703   -0.0000    2.5411 C   0  0  0  0  0  0  0  0  0  0  0  0
    1.0982    0.0251    4.0636 C   0  0  0  0  0  0  0  0  0  0  0  0
    0.3163   -1.4838    4.7605 S   0  0  0  0  0  0  0  0  0  0  0  0
    1.5736   -1.9885    6.0214 C   0  0  0  0  0  0  0  0  0  0  0  0
    2.8991   -2.3666    5.4252 C   0  0  0  0  0  0  0  0  0  0  0  0
    3.9676   -1.4582    5.4178 C   0  0  0  0  0  0  0  0  0  0  0  0
    5.1500   -1.7476    4.7302 C   0  0  0  0  0  0  0  0  0  0  0  0
    5.2895   -2.9664    4.0651 C   0  0  0  0  0  0  0  0  0  0  0  0
    4.2438   -3.8966    4.0969 C   0  0  0  0  0  0  0  0  0  0  0  0
    3.0580   -3.5959    4.7656 C   0  0  0  0  0  0  0  0  0  0  0  0
    2.1618    1.2818    2.1869 C   0  0  0  0  0  0  0  0  0  0  0  0
    3.6510    1.1374    2.4834 C   0  0  0  0  0  0  0  0  0  0  0  0
    4.2621    0.0636    1.7879 O   0  0  0  0  0  0  0  0  0  0  0  0
    3.3751   -0.8786    1.2089 C   0  0  0  0  0  0  0  0  0  0  0  0
    2.2277   -1.2357    2.1467 C   0  0  0  0  0  0  0  0  0  0  0  0
    0.3987   -1.2812   -0.1651 H   0  0  0  0  0  0  0  0  0  0  0  0
   -0.6001   -0.8545    2.1830 H   0  0  0  0  0  0  0  0  0  0  0  0
   -0.5534    0.9151    2.1013 H   0  0  0  0  0  0  0  0  0  0  0  0
    2.0451    0.1759    4.5976 H   0  0  0  0  0  0  0  0  0  0  0  0
    0.4493    0.8817    4.3062 H   0  0  0  0  0  0  0  0  0  0  0  0
    1.0981   -2.8420    6.5272 H   0  0  0  0  0  0  0  0  0  0  0  0
    1.6786   -1.1778    6.7575 H   0  0  0  0  0  0  0  0  0  0  0  0
    3.8670   -0.5052    5.9440 H   0  0  0  0  0  0  0  0  0  0  0  0
    5.9589   -1.0146    4.7061 H   0  0  0  0  0  0  0  0  0  0  0  0
    6.2095   -3.1921    3.5214 H   0  0  0  0  0  0  0  0  0  0  0  0
    4.3504   -4.8558    3.5844 H   0  0  0  0  0  0  0  0  0  0  0  0
    2.2271   -4.3060    4.7522 H   0  0  0  0  0  0  0  0  0  0  0  0
    1.7597    2.1458    2.7425 H   0  0  0  0  0  0  0  0  0  0  0  0
    2.0248    1.5024    1.1171 H   0  0  0  0  0  0  0  0  0  0  0  0
    4.1813    2.0648    2.2058 H   0  0  0  0  0  0  0  0  0  0  0  0
    3.8072    0.9950    3.5716 H   0  0  0  0  0  0  0  0  0  0  0  0
    2.9843   -0.5062    0.2430 H   0  0  0  0  0  0  0  0  0  0  0  0
    3.9806   -1.7739    0.9996 H   0  0  0  0  0  0  0  0  0  0  0  0
    2.6606   -1.6838    3.0465 H   0  0  0  0  0  0  0  0  0  0  0  0
    1.6029   -2.0221    1.6951 H   0  0  0  0  0  0  0  0  0  0  0  0
  1  2  1  0  0  0  0
  2 20  1  0  0  0  0
  2 19  1  0  0  0  0
  2  3  1  0  0  0  0
  3  4  1  0  0  0  0
  4 22  1  0  0  0  0
  4 21  1  0  0  0  0
  4  5  1  0  0  0  0
  5  6  1  0  0  0  0
  6 23  1  0  0  0  0
  6 24  1  0  0  0  0
  7  6  1  0  0  0  0
  8  7  1  0  0  0  0
  8 25  1  0  0  0  0
  9  8  2  0  0  0  0
 10 11  2  0  0  0  0
 10  9  1  0  0  0  0
 11 12  1  0  0  0  0
 12  7  2  0  0  0  0
 13 14  1  0  0  0  0
 13  3  1  0  0  0  0
 13 30  1  0  0  0  0
 14 33  1  0  0  0  0
 15 14  1  0  0  0  0
 16 15  1  0  0  0  0
 16 17  1  0  0  0  0
 17  3  1  0  0  0  0
 17 36  1  0  0  0  0
 18  1  1  0  0  0  0
 26  9  1  0  0  0  0
 27 10  1  0  0  0  0
 28 11  1  0  0  0  0
 29 12  1  0  0  0  0
 31 13  1  0  0  0  0
 32 14  1  0  0  0  0
 34 16  1  0  0  0  0
 35 16  1  0  0  0  0
 37 17  1  0  0  0  0
M  END
