315414872.xyz
 OpenBabel08132112113D
CCNC(=O)C(n1c(S)nc2c1n(C)nc2C)C
 35 36  0  0  1  0  0  0  0  0999 V2000
    1.2549   -4.4859    1.8494 C   0  0  0  0  0  0  0  0  0  0  0  0
    2.3933   -3.8368    1.0639 C   0  0  0  0  0  0  0  0  0  0  0  0
    2.3433   -2.3825    1.1044 N   0  0  0  0  0  0  0  0  0  0  0  0
    2.9366   -1.6779    2.1002 C   0  0  0  0  0  0  0  0  0  0  0  0
    3.6757   -2.1700    2.9403 O   0  0  0  0  0  0  0  0  0  0  0  0
    2.5948   -0.1729    2.1430 C   0  0  2  0  0  0  0  0  0  0  0  0
    1.1922    0.0000    2.5311 N   0  0  0  0  0  0  0  0  0  0  0  0
    0.0000    0.0000    1.7775 C   0  0  0  0  0  0  0  0  0  0  0  0
    0.0000    0.0000    0.0000 S   0  0  0  0  0  0  0  0  0  0  0  0
   -1.0909   -0.0372    2.4974 N   0  0  0  0  0  0  0  0  0  0  0  0
   -0.6454   -0.0967    3.8086 C   0  0  0  0  0  0  0  0  0  0  0  0
    0.7399   -0.0939    3.8335 C   0  0  1  0  0  0  0  0  0  0  0  0
    1.1615   -0.1944    5.1152 N   0  0  0  0  0  0  0  0  0  0  0  0
    2.4977   -0.2644    5.6631 C   0  0  0  0  0  0  0  0  0  0  0  0
    0.0663   -0.2472    5.9371 N   0  0  0  0  0  0  0  0  0  0  0  0
   -1.0303   -0.1911    5.1802 C   0  0  0  0  0  0  0  0  0  0  0  0
   -2.3947   -0.2375    5.7859 C   0  0  0  0  0  0  0  0  0  0  0  0
    3.0140    0.6005    0.8952 C   0  0  0  0  0  0  0  0  0  0  0  0
    0.2726   -4.1756    1.4580 H   0  0  0  0  0  0  0  0  0  0  0  0
    1.3080   -4.1965    2.9100 H   0  0  0  0  0  0  0  0  0  0  0  0
    1.3160   -5.5840    1.7885 H   0  0  0  0  0  0  0  0  0  0  0  0
    3.3640   -4.1373    1.4824 H   0  0  0  0  0  0  0  0  0  0  0  0
    2.3712   -4.1524    0.0084 H   0  0  0  0  0  0  0  0  0  0  0  0
    1.6462   -1.9164    0.5273 H   0  0  0  0  0  0  0  0  0  0  0  0
    3.1810    0.2120    2.9864 H   0  0  0  0  0  0  0  0  0  0  0  0
   -1.3030   -0.3564   -0.0439 H   0  0  0  0  0  0  0  0  0  0  0  0
    3.1212   -0.9399    5.0571 H   0  0  0  0  0  0  0  0  0  0  0  0
    2.4100   -0.6622    6.6814 H   0  0  0  0  0  0  0  0  0  0  0  0
    2.9719    0.7310    5.7115 H   0  0  0  0  0  0  0  0  0  0  0  0
   -2.3161   -0.3323    6.8775 H   0  0  0  0  0  0  0  0  0  0  0  0
   -2.9665    0.6753    5.5509 H   0  0  0  0  0  0  0  0  0  0  0  0
   -2.9737   -1.0912    5.3972 H   0  0  0  0  0  0  0  0  0  0  0  0
    2.5894    0.1900   -0.0297 H   0  0  0  0  0  0  0  0  0  0  0  0
    4.1089    0.5499    0.8034 H   0  0  0  0  0  0  0  0  0  0  0  0
    2.7188    1.6568    0.9785 H   0  0  0  0  0  0  0  0  0  0  0  0
  1 20  1  0  0  0  0
  2  3  1  0  0  0  0
  2 22  1  0  0  0  0
  2  1  1  0  0  0  0
  3  4  1  0  0  0  0
  4  6  1  0  0  0  0
  4  5  2  0  0  0  0
  6  7  1  0  0  0  0
  6 25  1  1  0  0  0
  7 12  1  0  0  0  0
  8 10  2  0  0  0  0
  8  7  1  0  0  0  0
  9  8  1  0  0  0  0
 10 11  2  0  0  0  0
 11 16  1  0  0  0  0
 12 11  1  6  0  0  0
 12 13  1  0  0  0  0
 13 14  1  0  0  0  0
 13 15  1  0  0  0  0
 14 29  1  0  0  0  0
 14 28  1  0  0  0  0
 16 17  1  0  0  0  0
 16 15  2  0  0  0  0
 17 30  1  0  0  0  0
 18 35  1  0  0  0  0
 18  6  1  0  0  0  0
 19  1  1  0  0  0  0
 21  1  1  0  0  0  0
 23  2  1  0  0  0  0
 24  3  1  0  0  0  0
 26  9  1  0  0  0  0
 27 14  1  0  0  0  0
 31 17  1  0  0  0  0
 32 17  1  0  0  0  0
 33 18  1  0  0  0  0
 34 18  1  0  0  0  0
M  RAD  1  12   2
M  END
