315418197.xyz
 OpenBabel08132112113D
Cc1cnc2c(c1)nc(n2CC1(C)CCCC1)S
 37 39  0  0  0  0  0  0  0  0999 V2000
    1.0553   -0.2415    7.5710 C   0  0  0  0  0  0  0  0  0  0  0  0
    0.4399   -0.1928    6.1951 C   0  0  0  0  0  0  0  0  0  0  0  0
   -0.9632   -0.2328    6.0374 C   0  0  0  0  0  0  0  0  0  0  0  0
   -1.6027   -0.1842    4.8615 N   0  0  0  0  0  0  0  0  0  0  0  0
   -0.8123   -0.0947    3.8087 C   0  0  0  0  0  0  0  0  0  0  0  0
    0.6068   -0.0604    3.8099 C   0  0  0  0  0  0  0  0  0  0  0  0
    1.2468   -0.1072    5.0488 C   0  0  0  0  0  0  0  0  0  0  0  0
    1.0782    0.0000    2.5111 N   0  0  0  0  0  0  0  0  0  0  0  0
    0.0000   -0.0000    1.7619 C   0  0  0  0  0  0  0  0  0  0  0  0
   -1.1870   -0.0401    2.4700 N   0  0  0  0  0  0  0  0  0  0  0  0
   -2.5482   -0.1383    1.9704 C   0  0  0  0  0  0  0  0  0  0  0  0
   -3.3090    1.1905    1.7931 C   0  0  0  0  0  0  0  0  0  0  0  0
   -4.7040    0.8269    1.2592 C   0  0  0  0  0  0  0  0  0  0  0  0
   -2.6098    2.1973    0.8552 C   0  0  0  0  0  0  0  0  0  0  0  0
   -3.2608    3.5602    1.1709 C   0  0  0  0  0  0  0  0  0  0  0  0
   -3.7990    3.4390    2.6257 C   0  0  0  0  0  0  0  0  0  0  0  0
   -3.4174    2.0198    3.0910 C   0  0  0  0  0  0  0  0  0  0  0  0
    0.0000    0.0000    0.0000 S   0  0  0  0  0  0  0  0  0  0  0  0
    1.7642   -1.0805    7.6644 H   0  0  0  0  0  0  0  0  0  0  0  0
    0.2880   -0.3615    8.3498 H   0  0  0  0  0  0  0  0  0  0  0  0
    1.6159    0.6819    7.7926 H   0  0  0  0  0  0  0  0  0  0  0  0
   -1.5964   -0.3090    6.9283 H   0  0  0  0  0  0  0  0  0  0  0  0
    2.3371   -0.0832    5.1188 H   0  0  0  0  0  0  0  0  0  0  0  0
   -3.0951   -0.7701    2.6862 H   0  0  0  0  0  0  0  0  0  0  0  0
   -2.5131   -0.6766    1.0097 H   0  0  0  0  0  0  0  0  0  0  0  0
   -5.2364    0.1684    1.9644 H   0  0  0  0  0  0  0  0  0  0  0  0
   -4.6337    0.3036    0.2916 H   0  0  0  0  0  0  0  0  0  0  0  0
   -5.3260    1.7206    1.1070 H   0  0  0  0  0  0  0  0  0  0  0  0
   -1.5379    2.2353    1.1024 H   0  0  0  0  0  0  0  0  0  0  0  0
   -2.6845    1.9138   -0.2065 H   0  0  0  0  0  0  0  0  0  0  0  0
   -4.0823    3.7725    0.4695 H   0  0  0  0  0  0  0  0  0  0  0  0
   -2.5390    4.3831    1.0598 H   0  0  0  0  0  0  0  0  0  0  0  0
   -4.8911    3.5774    2.6457 H   0  0  0  0  0  0  0  0  0  0  0  0
   -3.3779    4.2070    3.2915 H   0  0  0  0  0  0  0  0  0  0  0  0
   -4.1231    1.5837    3.8140 H   0  0  0  0  0  0  0  0  0  0  0  0
   -2.4360    2.0405    3.5863 H   0  0  0  0  0  0  0  0  0  0  0  0
    1.3391   -0.1739   -0.0524 H   0  0  0  0  0  0  0  0  0  0  0  0
  1 19  1  0  0  0  0
  1 21  1  0  0  0  0
  1 20  1  0  0  0  0
  2  1  1  0  0  0  0
  3  2  1  0  0  0  0
  3 22  1  0  0  0  0
  4  3  2  0  0  0  0
  5  6  1  0  0  0  0
  5  4  2  0  0  0  0
  6  7  1  0  0  0  0
  7 23  1  0  0  0  0
  7  2  2  0  0  0  0
  8  6  2  0  0  0  0
  9 10  1  0  0  0  0
  9  8  2  0  0  0  0
 10  5  1  0  0  0  0
 11 10  1  0  0  0  0
 11 24  1  0  0  0  0
 12 11  1  0  0  0  0
 12 17  1  0  0  0  0
 13 12  1  0  0  0  0
 13 26  1  0  0  0  0
 14 29  1  0  0  0  0
 14 15  1  0  0  0  0
 14 12  1  0  0  0  0
 15 16  1  0  0  0  0
 16 33  1  0  0  0  0
 16 17  1  0  0  0  0
 16 34  1  0  0  0  0
 17 36  1  0  0  0  0
 17 35  1  0  0  0  0
 18  9  1  0  0  0  0
 25 11  1  0  0  0  0
 27 13  1  0  0  0  0
 28 13  1  0  0  0  0
 30 14  1  0  0  0  0
 31 15  1  0  0  0  0
 32 15  1  0  0  0  0
 37 18  1  0  0  0  0
M  END
