315414474.xyz
 OpenBabel08132112113D
SCCCCCn1cc(Br)ccc1=O
 28 28  0  0  0  0  0  0  0  0999 V2000
    0.0000    0.0000    0.0000 S   0  0  0  0  0  0  0  0  0  0  0  0
   -0.0000    0.0000    1.8342 C   0  0  0  0  0  0  0  0  0  0  0  0
    1.3895    0.0000    2.4644 C   0  0  0  0  0  0  0  0  0  0  0  0
    1.3398   -0.1091    3.9924 C   0  0  0  0  0  0  0  0  0  0  0  0
    2.6993    0.0527    4.6782 C   0  0  0  0  0  0  0  0  0  0  0  0
    3.7051   -1.0348    4.2975 C   0  0  0  0  0  0  0  0  0  0  0  0
    4.9930   -0.8567    4.9731 N   0  0  0  0  0  0  0  0  0  0  0  0
    5.2567   -1.5241    6.1315 C   0  0  0  0  0  0  0  0  0  0  0  0
    6.4367   -1.3474    6.8016 C   0  0  0  0  0  0  0  0  0  0  0  0
    6.7793   -2.2994    8.4086 Br  0  0  0  0  0  0  0  0  0  0  0  0
    7.4036   -0.4461    6.2718 C   0  0  0  0  0  0  0  0  0  0  0  0
    7.1401    0.2292    5.1138 C   0  0  0  0  0  0  0  0  0  0  0  0
    5.8921    0.0758    4.3873 C   0  0  0  0  0  0  0  0  0  0  0  0
    5.5804    0.6658    3.3618 O   0  0  0  0  0  0  0  0  0  0  0  0
    0.6316    1.1875   -0.1519 H   0  0  0  0  0  0  0  0  0  0  0  0
   -0.5478   -0.9174    2.1045 H   0  0  0  0  0  0  0  0  0  0  0  0
   -0.6015    0.8472    2.2006 H   0  0  0  0  0  0  0  0  0  0  0  0
    1.9225    0.9246    2.1806 H   0  0  0  0  0  0  0  0  0  0  0  0
    1.9710   -0.8293    2.0304 H   0  0  0  0  0  0  0  0  0  0  0  0
    0.6577    0.6635    4.3875 H   0  0  0  0  0  0  0  0  0  0  0  0
    0.8915   -1.0796    4.2760 H   0  0  0  0  0  0  0  0  0  0  0  0
    3.1370    1.0283    4.4132 H   0  0  0  0  0  0  0  0  0  0  0  0
    2.5649    0.0441    5.7735 H   0  0  0  0  0  0  0  0  0  0  0  0
    3.9088   -1.0024    3.2200 H   0  0  0  0  0  0  0  0  0  0  0  0
    3.3205   -2.0338    4.5539 H   0  0  0  0  0  0  0  0  0  0  0  0
    4.4822   -2.2044    6.4882 H   0  0  0  0  0  0  0  0  0  0  0  0
    8.3494   -0.3030    6.7987 H   0  0  0  0  0  0  0  0  0  0  0  0
    7.8572    0.9279    4.6815 H   0  0  0  0  0  0  0  0  0  0  0  0
  1  2  1  0  0  0  0
  2 16  1  0  0  0  0
  2 17  1  0  0  0  0
  2  3  1  0  0  0  0
  3  4  1  0  0  0  0
  4 21  1  0  0  0  0
  4 20  1  0  0  0  0
  4  5  1  0  0  0  0
  5 23  1  0  0  0  0
  6 25  1  0  0  0  0
  6  5  1  0  0  0  0
  6  7  1  0  0  0  0
  7  8  1  0  0  0  0
  8 26  1  0  0  0  0
  8  9  2  0  0  0  0
  9 10  1  0  0  0  0
 11 27  1  0  0  0  0
 11  9  1  0  0  0  0
 12 11  2  0  0  0  0
 13  7  1  0  0  0  0
 13 12  1  0  0  0  0
 14 13  2  0  0  0  0
 15  1  1  0  0  0  0
 18  3  1  0  0  0  0
 19  3  1  0  0  0  0
 22  5  1  0  0  0  0
 24  6  1  0  0  0  0
 28 12  1  0  0  0  0
M  END
