315411546.xyz
 OpenBabel08132112113D
COC(=O)C(n1c(S)nc2c1ccnc2)C(C)C
 33 34  0  0  1  0  0  0  0  0999 V2000
   -3.3450    3.4973    2.6617 C   0  0  0  0  0  0  0  0  0  0  0  0
   -2.7855    2.3045    2.1037 O   0  0  0  0  0  0  0  0  0  0  0  0
   -3.3188    1.1501    2.5115 C   0  0  0  0  0  0  0  0  0  0  0  0
   -4.2557    1.0631    3.2650 O   0  0  0  0  0  0  0  0  0  0  0  0
   -2.5443   -0.0362    1.9181 C   0  0  1  0  0  0  0  0  0  0  0  0
   -1.1964   -0.0108    2.4672 N   0  0  0  0  0  0  0  0  0  0  0  0
   -0.0000    0.0000    1.7620 C   0  0  0  0  0  0  0  0  0  0  0  0
    0.0000    0.0000    0.0000 S   0  0  0  0  0  0  0  0  0  0  0  0
    1.0613   -0.0000    2.5226 N   0  0  0  0  0  0  0  0  0  0  0  0
    0.5715   -0.0087    3.8200 C   0  0  0  0  0  0  0  0  0  0  0  0
   -0.8453   -0.0177    3.8095 C   0  0  0  0  0  0  0  0  0  0  0  0
   -1.5707   -0.0220    5.0030 C   0  0  0  0  0  0  0  0  0  0  0  0
   -0.7977   -0.0206    6.1684 C   0  0  0  0  0  0  0  0  0  0  0  0
    0.5461   -0.0153    6.2013 N   0  0  0  0  0  0  0  0  0  0  0  0
    1.2279   -0.0085    5.0580 C   0  0  0  0  0  0  0  0  0  0  0  0
   -3.2639   -1.3841    2.1097 C   0  0  0  0  0  0  0  0  0  0  0  0
   -4.5488   -1.4127    1.2761 C   0  0  0  0  0  0  0  0  0  0  0  0
   -2.3422   -2.5541    1.7564 C   0  0  0  0  0  0  0  0  0  0  0  0
   -4.4157    3.5719    2.4210 H   0  0  0  0  0  0  0  0  0  0  0  0
   -2.7902    4.3306    2.2155 H   0  0  0  0  0  0  0  0  0  0  0  0
   -3.2278    3.4991    3.7553 H   0  0  0  0  0  0  0  0  0  0  0  0
   -2.4425    0.1691    0.8408 H   0  0  0  0  0  0  0  0  0  0  0  0
    1.3493    0.0385   -0.0541 H   0  0  0  0  0  0  0  0  0  0  0  0
   -2.6599   -0.0171    5.0410 H   0  0  0  0  0  0  0  0  0  0  0  0
   -1.3022   -0.0241    7.1410 H   0  0  0  0  0  0  0  0  0  0  0  0
    2.3224   -0.0023    5.1074 H   0  0  0  0  0  0  0  0  0  0  0  0
   -3.5425   -1.4592    3.1733 H   0  0  0  0  0  0  0  0  0  0  0  0
   -5.2278   -0.5922    1.5470 H   0  0  0  0  0  0  0  0  0  0  0  0
   -5.0877   -2.3591    1.4343 H   0  0  0  0  0  0  0  0  0  0  0  0
   -4.3185   -1.3378    0.1995 H   0  0  0  0  0  0  0  0  0  0  0  0
   -2.8830   -3.5068    1.8608 H   0  0  0  0  0  0  0  0  0  0  0  0
   -1.4608   -2.5957    2.4126 H   0  0  0  0  0  0  0  0  0  0  0  0
   -1.9844   -2.4812    0.7161 H   0  0  0  0  0  0  0  0  0  0  0  0
  1 21  1  0  0  0  0
  2  3  1  0  0  0  0
  2  1  1  0  0  0  0
  3  4  2  0  0  0  0
  5 22  1  6  0  0  0
  5 16  1  0  0  0  0
  5  6  1  0  0  0  0
  5  3  1  0  0  0  0
  6 11  1  0  0  0  0
  7  6  1  0  0  0  0
  7  9  2  0  0  0  0
  8  7  1  0  0  0  0
  9 10  2  0  0  0  0
 10 15  1  0  0  0  0
 11 10  1  0  0  0  0
 11 12  2  0  0  0  0
 12 24  1  0  0  0  0
 12 13  1  0  0  0  0
 13 14  2  0  0  0  0
 13 25  1  0  0  0  0
 15 26  1  0  0  0  0
 15 14  2  0  0  0  0
 16 27  1  0  0  0  0
 17 29  1  0  0  0  0
 17 28  1  0  0  0  0
 17 16  1  0  0  0  0
 18 31  1  0  0  0  0
 18 16  1  0  0  0  0
 18 32  1  0  0  0  0
 19  1  1  0  0  0  0
 20  1  1  0  0  0  0
 23  8  1  0  0  0  0
 30 17  1  0  0  0  0
 33 18  1  0  0  0  0
M  END
