315431751.xyz
 OpenBabel08132112113D
SCC(COc1cccc2c1OC(C2)(C)C)(C)C
 40 41  0  0  0  0  0  0  0  0999 V2000
    0.0000    0.0000    0.0000 S   0  0  0  0  0  0  0  0  0  0  0  0
   -0.0000   -0.0000    1.8356 C   0  0  0  0  0  0  0  0  0  0  0  0
    1.3817    0.0000    2.5289 C   0  0  0  0  0  0  0  0  0  0  0  0
    1.1289   -0.0092    4.0441 C   0  0  0  0  0  0  0  0  0  0  0  0
    0.4151   -1.1810    4.3791 O   0  0  0  0  0  0  0  0  0  0  0  0
    0.0465   -1.3999    5.6646 C   0  0  0  0  0  0  0  0  0  0  0  0
    0.3532   -0.5774    6.7585 C   0  0  0  0  0  0  0  0  0  0  0  0
   -0.0887   -0.9054    8.0500 C   0  0  0  0  0  0  0  0  0  0  0  0
   -0.8404   -2.0605    8.2830 C   0  0  0  0  0  0  0  0  0  0  0  0
   -1.1478   -2.8813    7.1966 C   0  0  0  0  0  0  0  0  0  0  0  0
   -0.7112   -2.5558    5.9146 C   0  0  0  0  0  0  0  0  0  0  0  0
   -1.0863   -3.4406    4.9596 O   0  0  0  0  0  0  0  0  0  0  0  0
   -2.0532   -4.3678    5.5569 C   0  0  0  0  0  0  0  0  0  0  0  0
   -1.8828   -4.1945    7.0956 C   0  0  0  0  0  0  0  0  0  0  0  0
   -1.7024   -5.7602    5.0578 C   0  0  0  0  0  0  0  0  0  0  0  0
   -3.4375   -3.9177    5.0952 C   0  0  0  0  0  0  0  0  0  0  0  0
    2.1621    1.2749    2.1859 C   0  0  0  0  0  0  0  0  0  0  0  0
    2.1932   -1.2442    2.1412 C   0  0  0  0  0  0  0  0  0  0  0  0
    0.2732   -1.3135   -0.1655 H   0  0  0  0  0  0  0  0  0  0  0  0
   -0.5467    0.9173    2.1065 H   0  0  0  0  0  0  0  0  0  0  0  0
   -0.5973   -0.8488    2.1935 H   0  0  0  0  0  0  0  0  0  0  0  0
    0.5504    0.8865    4.3416 H   0  0  0  0  0  0  0  0  0  0  0  0
    2.0937    0.0199    4.5851 H   0  0  0  0  0  0  0  0  0  0  0  0
    0.9366    0.3309    6.6086 H   0  0  0  0  0  0  0  0  0  0  0  0
    0.1636   -0.2414    8.8797 H   0  0  0  0  0  0  0  0  0  0  0  0
   -1.1793   -2.3129    9.2902 H   0  0  0  0  0  0  0  0  0  0  0  0
   -1.2848   -5.0158    7.5274 H   0  0  0  0  0  0  0  0  0  0  0  0
   -2.8553   -4.1918    7.6114 H   0  0  0  0  0  0  0  0  0  0  0  0
   -1.7681   -5.8048    3.9603 H   0  0  0  0  0  0  0  0  0  0  0  0
   -0.6770   -6.0261    5.3547 H   0  0  0  0  0  0  0  0  0  0  0  0
   -2.3953   -6.5050    5.4794 H   0  0  0  0  0  0  0  0  0  0  0  0
   -3.6496   -2.9007    5.4595 H   0  0  0  0  0  0  0  0  0  0  0  0
   -3.4890   -3.9102    3.9964 H   0  0  0  0  0  0  0  0  0  0  0  0
   -4.2153   -4.5946    5.4821 H   0  0  0  0  0  0  0  0  0  0  0  0
    3.1488    1.2793    2.6761 H   0  0  0  0  0  0  0  0  0  0  0  0
    1.6172    2.1781    2.5073 H   0  0  0  0  0  0  0  0  0  0  0  0
    2.3173    1.3440    1.0994 H   0  0  0  0  0  0  0  0  0  0  0  0
    3.1559   -1.2600    2.6770 H   0  0  0  0  0  0  0  0  0  0  0  0
    1.6473   -2.1638    2.3983 H   0  0  0  0  0  0  0  0  0  0  0  0
    2.4082   -1.2452    1.0626 H   0  0  0  0  0  0  0  0  0  0  0  0
  1  2  1  0  0  0  0
  2 20  1  0  0  0  0
  2 21  1  0  0  0  0
  2  3  1  0  0  0  0
  3  4  1  0  0  0  0
  4 22  1  0  0  0  0
  4  5  1  0  0  0  0
  4 23  1  0  0  0  0
  5  6  1  0  0  0  0
  6 11  2  0  0  0  0
  6  7  1  0  0  0  0
  7  8  2  0  0  0  0
  8  9  1  0  0  0  0
  8 25  1  0  0  0  0
  9 26  1  0  0  0  0
 10  9  2  0  0  0  0
 11 10  1  0  0  0  0
 12 13  1  0  0  0  0
 12 11  1  0  0  0  0
 13 14  1  0  0  0  0
 14 10  1  0  0  0  0
 14 27  1  0  0  0  0
 14 28  1  0  0  0  0
 15 30  1  0  0  0  0
 15 31  1  0  0  0  0
 15 13  1  0  0  0  0
 16 32  1  0  0  0  0
 16 34  1  0  0  0  0
 16 13  1  0  0  0  0
 17 36  1  0  0  0  0
 17  3  1  0  0  0  0
 17 35  1  0  0  0  0
 18 39  1  0  0  0  0
 18  3  1  0  0  0  0
 18 38  1  0  0  0  0
 19  1  1  0  0  0  0
 24  7  1  0  0  0  0
 29 15  1  0  0  0  0
 33 16  1  0  0  0  0
 37 17  1  0  0  0  0
 40 18  1  0  0  0  0
M  END
