315405002.xyz
 OpenBabel08132112113D
CCC1CCCCC1OCC(CS)(C)C
 41 41  0  0  1  0  0  0  0  0999 V2000
    4.5316    4.0252    2.0677 C   0  0  0  0  0  0  0  0  0  0  0  0
    4.9044    2.9232    1.0735 C   0  0  0  0  0  0  0  0  0  0  0  0
    4.1102    2.7719   -0.2406 C   0  0  2  0  0  0  0  0  0  0  0  0
    4.2061    3.9772   -1.2028 C   0  0  0  0  0  0  0  0  0  0  0  0
    3.1975    5.1017   -0.9333 C   0  0  0  0  0  0  0  0  0  0  0  0
    1.7685    4.5590   -0.8540 C   0  0  0  0  0  0  0  0  0  0  0  0
    1.6542    3.4609    0.2082 C   0  0  0  0  0  0  0  0  0  0  0  0
    2.6356    2.3273   -0.1050 C   0  0  2  0  0  0  0  0  0  0  0  0
    2.5085    1.1710    0.7178 O   0  0  0  0  0  0  0  0  0  0  0  0
    2.1865    1.2554    2.0839 C   0  0  0  0  0  0  0  0  0  0  0  0
    1.4001    0.0000    2.4962 C   0  0  0  0  0  0  0  0  0  0  0  0
   -0.0000   -0.0000    1.8489 C   0  0  0  0  0  0  0  0  0  0  0  0
    0.0000    0.0000    0.0000 S   0  0  0  0  0  0  0  0  0  0  0  0
    1.1975    0.0541    4.0197 C   0  0  0  0  0  0  0  0  0  0  0  0
    2.1856   -1.2639    2.1205 C   0  0  0  0  0  0  0  0  0  0  0  0
    4.6137    5.0296    1.6264 H   0  0  0  0  0  0  0  0  0  0  0  0
    3.5084    3.9150    2.4555 H   0  0  0  0  0  0  0  0  0  0  0  0
    5.2106    3.9956    2.9351 H   0  0  0  0  0  0  0  0  0  0  0  0
    4.8707    1.9497    1.5886 H   0  0  0  0  0  0  0  0  0  0  0  0
    5.9619    3.0639    0.7876 H   0  0  0  0  0  0  0  0  0  0  0  0
    4.6076    1.9278   -0.7482 H   0  0  0  0  0  0  0  0  0  0  0  0
    5.2360    4.3724   -1.1941 H   0  0  0  0  0  0  0  0  0  0  0  0
    4.0306    3.6085   -2.2292 H   0  0  0  0  0  0  0  0  0  0  0  0
    3.2735    5.8622   -1.7283 H   0  0  0  0  0  0  0  0  0  0  0  0
    3.4389    5.6178    0.0098 H   0  0  0  0  0  0  0  0  0  0  0  0
    1.0569    5.3718   -0.6358 H   0  0  0  0  0  0  0  0  0  0  0  0
    1.4785    4.1454   -1.8370 H   0  0  0  0  0  0  0  0  0  0  0  0
    1.8497    3.9054    1.1956 H   0  0  0  0  0  0  0  0  0  0  0  0
    0.6351    3.0430    0.2290 H   0  0  0  0  0  0  0  0  0  0  0  0
    2.3416    1.9559   -1.1026 H   0  0  0  0  0  0  0  0  0  0  0  0
    3.1030    1.3255    2.7018 H   0  0  0  0  0  0  0  0  0  0  0  0
    1.5751    2.1447    2.3093 H   0  0  0  0  0  0  0  0  0  0  0  0
   -0.5618    0.8794    2.2017 H   0  0  0  0  0  0  0  0  0  0  0  0
   -0.5409   -0.8984    2.1808 H   0  0  0  0  0  0  0  0  0  0  0  0
   -1.2863   -0.4161   -0.1068 H   0  0  0  0  0  0  0  0  0  0  0  0
    2.1667    0.0477    4.5431 H   0  0  0  0  0  0  0  0  0  0  0  0
    0.6216   -0.8166    4.3705 H   0  0  0  0  0  0  0  0  0  0  0  0
    0.6538    0.9635    4.3243 H   0  0  0  0  0  0  0  0  0  0  0  0
    2.3531   -1.3143    1.0373 H   0  0  0  0  0  0  0  0  0  0  0  0
    1.6381   -2.1682    2.4319 H   0  0  0  0  0  0  0  0  0  0  0  0
    3.1667   -1.2701    2.6224 H   0  0  0  0  0  0  0  0  0  0  0  0
  1 17  1  0  0  0  0
  1 18  1  0  0  0  0
  2 19  1  0  0  0  0
  2  1  1  0  0  0  0
  3  8  1  1  0  0  0
  3  2  1  0  0  0  0
  4 22  1  0  0  0  0
  4  5  1  0  0  0  0
  4  3  1  0  0  0  0
  5  6  1  0  0  0  0
  5 25  1  0  0  0  0
  6 26  1  0  0  0  0
  6  7  1  0  0  0  0
  7 29  1  0  0  0  0
  7 28  1  0  0  0  0
  8 30  1  6  0  0  0
  8  7  1  0  0  0  0
  8  9  1  0  0  0  0
  9 10  1  0  0  0  0
 10 32  1  0  0  0  0
 10 11  1  0  0  0  0
 10 31  1  0  0  0  0
 11 14  1  0  0  0  0
 12 34  1  0  0  0  0
 12 33  1  0  0  0  0
 12 11  1  0  0  0  0
 13 12  1  0  0  0  0
 14 38  1  0  0  0  0
 14 37  1  0  0  0  0
 14 36  1  0  0  0  0
 15 40  1  0  0  0  0
 15 11  1  0  0  0  0
 15 41  1  0  0  0  0
 16  1  1  0  0  0  0
 20  2  1  0  0  0  0
 21  3  1  0  0  0  0
 23  4  1  0  0  0  0
 24  5  1  0  0  0  0
 27  6  1  0  0  0  0
 35 13  1  0  0  0  0
 39 15  1  0  0  0  0
M  END
