315489076.xyz
 OpenBabel08132112113D
CCCC(CN1C(C)CCCC1C)(CCC)CS
 51 51  0  0  1  0  0  0  0  0999 V2000
    0.2261   -0.7123    6.2825 C   0  0  0  0  0  0  0  0  0  0  0  0
    0.1846   -0.8376    4.7598 C   0  0  0  0  0  0  0  0  0  0  0  0
    1.1267    0.1603    4.0761 C   0  0  0  0  0  0  0  0  0  0  0  0
    1.3687    0.0000    2.5567 C   0  0  0  0  0  0  0  0  0  0  0  0
    2.0852   -1.3461    2.2498 C   0  0  0  0  0  0  0  0  0  0  0  0
    3.3893   -1.5020    2.8629 N   0  0  0  0  0  0  0  0  0  0  0  0
    4.5381   -1.4679    1.9543 C   0  0  2  0  0  0  0  0  0  0  0  0
    4.7044   -2.7028    1.0464 C   0  0  0  0  0  0  0  0  0  0  0  0
    5.8154   -1.1562    2.7483 C   0  0  0  0  0  0  0  0  0  0  0  0
    5.9893   -2.0885    3.9485 C   0  0  0  0  0  0  0  0  0  0  0  0
    4.7452   -2.0318    4.8363 C   0  0  0  0  0  0  0  0  0  0  0  0
    3.4609   -2.3483    4.0548 C   0  0  2  0  0  0  0  0  0  0  0  0
    3.2872   -3.8610    3.8111 C   0  0  0  0  0  0  0  0  0  0  0  0
    2.2719    1.1485    2.0511 C   0  0  0  0  0  0  0  0  0  0  0  0
    1.7896    2.5945    2.2874 C   0  0  0  0  0  0  0  0  0  0  0  0
    2.4662    3.2991    3.4656 C   0  0  0  0  0  0  0  0  0  0  0  0
    0.0000    0.0000    1.8416 C   0  0  0  0  0  0  0  0  0  0  0  0
    0.0000    0.0000    0.0000 S   0  0  0  0  0  0  0  0  0  0  0  0
    1.2360   -0.9282    6.6699 H   0  0  0  0  0  0  0  0  0  0  0  0
   -0.0357    0.3091    6.6053 H   0  0  0  0  0  0  0  0  0  0  0  0
   -0.4756   -1.4078    6.7694 H   0  0  0  0  0  0  0  0  0  0  0  0
   -0.8499   -0.6804    4.4117 H   0  0  0  0  0  0  0  0  0  0  0  0
    0.4416   -1.8718    4.4751 H   0  0  0  0  0  0  0  0  0  0  0  0
    2.1144    0.1240    4.5655 H   0  0  0  0  0  0  0  0  0  0  0  0
    0.7358    1.1729    4.2678 H   0  0  0  0  0  0  0  0  0  0  0  0
    2.1850   -1.4181    1.1552 H   0  0  0  0  0  0  0  0  0  0  0  0
    1.4151   -2.1772    2.5362 H   0  0  0  0  0  0  0  0  0  0  0  0
    4.3615   -0.6124    1.2834 H   0  0  0  0  0  0  0  0  0  0  0  0
    5.0671   -3.5841    1.5936 H   0  0  0  0  0  0  0  0  0  0  0  0
    3.7492   -2.9751    0.5713 H   0  0  0  0  0  0  0  0  0  0  0  0
    5.4277   -2.4888    0.2429 H   0  0  0  0  0  0  0  0  0  0  0  0
    6.6892   -1.2099    2.0785 H   0  0  0  0  0  0  0  0  0  0  0  0
    5.7494   -0.1174    3.1137 H   0  0  0  0  0  0  0  0  0  0  0  0
    6.8832   -1.8031    4.5266 H   0  0  0  0  0  0  0  0  0  0  0  0
    6.1652   -3.1223    3.6055 H   0  0  0  0  0  0  0  0  0  0  0  0
    4.6529   -1.0138    5.2515 H   0  0  0  0  0  0  0  0  0  0  0  0
    4.8383   -2.7237    5.6894 H   0  0  0  0  0  0  0  0  0  0  0  0
    2.6197   -2.0443    4.6950 H   0  0  0  0  0  0  0  0  0  0  0  0
    2.4266   -4.0608    3.1541 H   0  0  0  0  0  0  0  0  0  0  0  0
    4.1721   -4.3185    3.3474 H   0  0  0  0  0  0  0  0  0  0  0  0
    3.1052   -4.3804    4.7659 H   0  0  0  0  0  0  0  0  0  0  0  0
    2.4207    0.9900    0.9724 H   0  0  0  0  0  0  0  0  0  0  0  0
    3.2558    1.0139    2.5275 H   0  0  0  0  0  0  0  0  0  0  0  0
    1.9759    3.1845    1.3748 H   0  0  0  0  0  0  0  0  0  0  0  0
    0.6947    2.6218    2.4234 H   0  0  0  0  0  0  0  0  0  0  0  0
    2.2940    2.7687    4.4149 H   0  0  0  0  0  0  0  0  0  0  0  0
    2.0975    4.3306    3.5868 H   0  0  0  0  0  0  0  0  0  0  0  0
    3.5574    3.3507    3.3158 H   0  0  0  0  0  0  0  0  0  0  0  0
   -0.5636    0.9068    2.1063 H   0  0  0  0  0  0  0  0  0  0  0  0
   -0.6107   -0.8511    2.1717 H   0  0  0  0  0  0  0  0  0  0  0  0
    0.2594   -1.3152   -0.1718 H   0  0  0  0  0  0  0  0  0  0  0  0
  1 20  1  0  0  0  0
  1 19  1  0  0  0  0
  1 21  1  0  0  0  0
  2  1  1  0  0  0  0
  3 25  1  0  0  0  0
  3 24  1  0  0  0  0
  3  2  1  0  0  0  0
  4  3  1  0  0  0  0
  5 27  1  0  0  0  0
  5  4  1  0  0  0  0
  5  6  1  0  0  0  0
  6 12  1  0  0  0  0
  7 28  1  6  0  0  0
  7  9  1  0  0  0  0
  7  6  1  0  0  0  0
  8 29  1  0  0  0  0
  8  7  1  0  0  0  0
  9 33  1  0  0  0  0
  9 10  1  0  0  0  0
 10 34  1  0  0  0  0
 10 11  1  0  0  0  0
 11 36  1  0  0  0  0
 11 37  1  0  0  0  0
 12 38  1  1  0  0  0
 12 11  1  0  0  0  0
 13 12  1  0  0  0  0
 13 41  1  0  0  0  0
 14 15  1  0  0  0  0
 14 43  1  0  0  0  0
 14  4  1  0  0  0  0
 15 45  1  0  0  0  0
 15 16  1  0  0  0  0
 16 47  1  0  0  0  0
 16 46  1  0  0  0  0
 17 49  1  0  0  0  0
 17 50  1  0  0  0  0
 17  4  1  0  0  0  0
 18 17  1  0  0  0  0
 22  2  1  0  0  0  0
 23  2  1  0  0  0  0
 26  5  1  0  0  0  0
 30  8  1  0  0  0  0
 31  8  1  0  0  0  0
 32  9  1  0  0  0  0
 35 10  1  0  0  0  0
 39 13  1  0  0  0  0
 40 13  1  0  0  0  0
 42 14  1  0  0  0  0
 44 15  1  0  0  0  0
 48 16  1  0  0  0  0
 51 18  1  0  0  0  0
M  END
