315433804.xyz
 OpenBabel08132112113D
SCC(C(C)C)COc1ccc(cc1)S(=O)(=O)C
 38 38  0  0  1  0  0  0  0  0999 V2000
    0.0000    0.0000    0.0000 S   0  0  0  0  0  0  0  0  0  0  0  0
   -0.0000   -0.0000    1.8407 C   0  0  0  0  0  0  0  0  0  0  0  0
    1.3617   -0.0000    2.5618 C   0  0  1  0  0  0  0  0  0  0  0  0
    2.0738   -1.3784    2.6103 C   0  0  0  0  0  0  0  0  0  0  0  0
    2.7993   -1.7747    1.3171 C   0  0  0  0  0  0  0  0  0  0  0  0
    3.0273   -1.4701    3.8092 C   0  0  0  0  0  0  0  0  0  0  0  0
    2.2694    1.1090    2.0493 C   0  0  0  0  0  0  0  0  0  0  0  0
    1.5763    2.3444    2.1963 O   0  0  0  0  0  0  0  0  0  0  0  0
    2.1407    3.4850    1.7474 C   0  0  0  0  0  0  0  0  0  0  0  0
    1.3723    4.6556    1.9001 C   0  0  0  0  0  0  0  0  0  0  0  0
    1.8658    5.8780    1.4658 C   0  0  0  0  0  0  0  0  0  0  0  0
    3.1383    5.9365    0.8837 C   0  0  0  0  0  0  0  0  0  0  0  0
    3.9037    4.7842    0.7136 C   0  0  0  0  0  0  0  0  0  0  0  0
    3.4105    3.5526    1.1480 C   0  0  0  0  0  0  0  0  0  0  0  0
    3.7792    7.5094    0.3210 S   0  0  0  0  0  0  0  0  0  0  0  0
    4.8069    7.2446   -0.6960 O   0  0  0  0  0  0  0  0  0  0  0  0
    2.6376    8.3928    0.0453 O   0  0  0  0  0  0  0  0  0  0  0  0
    4.6273    8.1771    1.7680 C   0  0  0  0  0  0  0  0  0  0  0  0
    0.2680    1.3167   -0.1535 H   0  0  0  0  0  0  0  0  0  0  0  0
   -0.5881    0.8682    2.1643 H   0  0  0  0  0  0  0  0  0  0  0  0
   -0.5671   -0.8998    2.1223 H   0  0  0  0  0  0  0  0  0  0  0  0
    1.1165    0.2583    3.6079 H   0  0  0  0  0  0  0  0  0  0  0  0
    1.2719   -2.1192    2.7798 H   0  0  0  0  0  0  0  0  0  0  0  0
    3.6774   -1.1326    1.1355 H   0  0  0  0  0  0  0  0  0  0  0  0
    3.1686   -2.8097    1.3922 H   0  0  0  0  0  0  0  0  0  0  0  0
    2.1454   -1.7021    0.4377 H   0  0  0  0  0  0  0  0  0  0  0  0
    2.5093   -1.2566    4.7577 H   0  0  0  0  0  0  0  0  0  0  0  0
    3.8657   -0.7598    3.7174 H   0  0  0  0  0  0  0  0  0  0  0  0
    3.4647   -2.4782    3.8832 H   0  0  0  0  0  0  0  0  0  0  0  0
    3.2152    1.1414    2.6165 H   0  0  0  0  0  0  0  0  0  0  0  0
    2.5098    0.9463    0.9858 H   0  0  0  0  0  0  0  0  0  0  0  0
    0.3841    4.5702    2.3551 H   0  0  0  0  0  0  0  0  0  0  0  0
    1.2717    6.7893    1.5535 H   0  0  0  0  0  0  0  0  0  0  0  0
    4.8771    4.8546    0.2248 H   0  0  0  0  0  0  0  0  0  0  0  0
    4.0125    2.6562    1.0075 H   0  0  0  0  0  0  0  0  0  0  0  0
    5.0274    9.1486    1.4458 H   0  0  0  0  0  0  0  0  0  0  0  0
    5.4396    7.4967    2.0529 H   0  0  0  0  0  0  0  0  0  0  0  0
    3.9022    8.3059    2.5815 H   0  0  0  0  0  0  0  0  0  0  0  0
  1  2  1  0  0  0  0
  2 21  1  0  0  0  0
  2 20  1  0  0  0  0
  2  3  1  0  0  0  0
  3  4  1  0  0  0  0
  3 22  1  1  0  0  0
  4 23  1  0  0  0  0
  4  6  1  0  0  0  0
  5 25  1  0  0  0  0
  5  4  1  0  0  0  0
  6 29  1  0  0  0  0
  6 27  1  0  0  0  0
  7  8  1  0  0  0  0
  7  3  1  0  0  0  0
  7 30  1  0  0  0  0
  9 10  1  0  0  0  0
  9  8  1  0  0  0  0
 10 32  1  0  0  0  0
 11 33  1  0  0  0  0
 11 10  2  0  0  0  0
 12 11  1  0  0  0  0
 13 12  2  0  0  0  0
 13 14  1  0  0  0  0
 14  9  2  0  0  0  0
 15 12  1  0  0  0  0
 15 18  1  0  0  0  0
 16 15  2  0  0  0  0
 17 15  2  0  0  0  0
 18 37  1  0  0  0  0
 18 38  1  0  0  0  0
 19  1  1  0  0  0  0
 24  5  1  0  0  0  0
 26  5  1  0  0  0  0
 28  6  1  0  0  0  0
 31  7  1  0  0  0  0
 34 13  1  0  0  0  0
 35 14  1  0  0  0  0
 36 18  1  0  0  0  0
M  END
