315426379.xyz
 OpenBabel08132112113D
CCC(CN(Cc1csc(c1)Br)C)(CS)CC
 39 39  0  0  0  0  0  0  0  0999 V2000
    2.1647   -0.1956    5.0692 C   0  0  0  0  0  0  0  0  0  0  0  0
    1.0184   -0.2796    4.0606 C   0  0  0  0  0  0  0  0  0  0  0  0
    1.3670   -0.0000    2.5730 C   0  0  0  0  0  0  0  0  0  0  0  0
    2.2971   -1.0994    2.0033 C   0  0  0  0  0  0  0  0  0  0  0  0
    1.7164   -2.4398    1.9878 N   0  0  0  0  0  0  0  0  0  0  0  0
    1.7423   -3.0960    0.6882 C   0  0  0  0  0  0  0  0  0  0  0  0
    0.6932   -4.1711    0.5702 C   0  0  0  0  0  0  0  0  0  0  0  0
    0.8949   -5.4146    0.0238 C   0  0  0  0  0  0  0  0  0  0  0  0
   -0.5536   -6.3701   -0.0054 S   0  0  0  0  0  0  0  0  0  0  0  0
   -1.4460   -5.0789    0.7430 C   0  0  0  0  0  0  0  0  0  0  0  0
   -0.6652   -3.9809    0.9934 C   0  0  0  0  0  0  0  0  0  0  0  0
   -3.2760   -5.2811    1.1319 Br  0  0  0  0  0  0  0  0  0  0  0  0
    2.1841   -3.3151    3.0455 C   0  0  0  0  0  0  0  0  0  0  0  0
    0.0000   -0.0000    1.8519 C   0  0  0  0  0  0  0  0  0  0  0  0
    0.0000    0.0000    0.0000 S   0  0  0  0  0  0  0  0  0  0  0  0
    2.0767    1.3726    2.4770 C   0  0  0  0  0  0  0  0  0  0  0  0
    2.2718    1.9850    1.0884 C   0  0  0  0  0  0  0  0  0  0  0  0
    3.0024   -0.8600    4.8056 H   0  0  0  0  0  0  0  0  0  0  0  0
    2.5677    0.8246    5.1557 H   0  0  0  0  0  0  0  0  0  0  0  0
    1.8143   -0.4937    6.0699 H   0  0  0  0  0  0  0  0  0  0  0  0
    0.5519   -1.2764    4.1136 H   0  0  0  0  0  0  0  0  0  0  0  0
    0.2312    0.4331    4.3642 H   0  0  0  0  0  0  0  0  0  0  0  0
    3.2473   -1.0885    2.5705 H   0  0  0  0  0  0  0  0  0  0  0  0
    2.5598   -0.8168    0.9748 H   0  0  0  0  0  0  0  0  0  0  0  0
    1.5380   -2.3287   -0.0735 H   0  0  0  0  0  0  0  0  0  0  0  0
    2.7387   -3.5326    0.4503 H   0  0  0  0  0  0  0  0  0  0  0  0
    1.8246   -5.8243   -0.3692 H   0  0  0  0  0  0  0  0  0  0  0  0
   -1.0259   -3.0771    1.4810 H   0  0  0  0  0  0  0  0  0  0  0  0
    3.2652   -3.5660    2.9476 H   0  0  0  0  0  0  0  0  0  0  0  0
    2.0347   -2.8567    4.0317 H   0  0  0  0  0  0  0  0  0  0  0  0
    1.6193   -4.2594    3.0281 H   0  0  0  0  0  0  0  0  0  0  0  0
   -0.5819    0.8735    2.1817 H   0  0  0  0  0  0  0  0  0  0  0  0
   -0.5499   -0.8979    2.1559 H   0  0  0  0  0  0  0  0  0  0  0  0
   -0.7621   -1.1057   -0.1512 H   0  0  0  0  0  0  0  0  0  0  0  0
    3.0644    1.2769    2.9578 H   0  0  0  0  0  0  0  0  0  0  0  0
    1.5121    2.0890    3.1000 H   0  0  0  0  0  0  0  0  0  0  0  0
    2.8127    1.3146    0.4038 H   0  0  0  0  0  0  0  0  0  0  0  0
    2.8559    2.9157    1.1668 H   0  0  0  0  0  0  0  0  0  0  0  0
    1.3155    2.2443    0.6087 H   0  0  0  0  0  0  0  0  0  0  0  0
  1 19  1  0  0  0  0
  1 20  1  0  0  0  0
  2 21  1  0  0  0  0
  2 22  1  0  0  0  0
  2  1  1  0  0  0  0
  3  2  1  0  0  0  0
  4 23  1  0  0  0  0
  4  3  1  0  0  0  0
  5  4  1  0  0  0  0
  5 13  1  0  0  0  0
  6  5  1  0  0  0  0
  7  6  1  0  0  0  0
  7 11  1  0  0  0  0
  8  7  2  0  0  0  0
  9  8  1  0  0  0  0
  9 10  1  0  0  0  0
 10 11  2  0  0  0  0
 10 12  1  0  0  0  0
 11 28  1  0  0  0  0
 13 30  1  0  0  0  0
 14 33  1  0  0  0  0
 14 32  1  0  0  0  0
 14  3  1  0  0  0  0
 15 14  1  0  0  0  0
 16  3  1  0  0  0  0
 16 35  1  0  0  0  0
 16 36  1  0  0  0  0
 17 38  1  0  0  0  0
 17 16  1  0  0  0  0
 18  1  1  0  0  0  0
 24  4  1  0  0  0  0
 25  6  1  0  0  0  0
 26  6  1  0  0  0  0
 27  8  1  0  0  0  0
 29 13  1  0  0  0  0
 31 13  1  0  0  0  0
 34 15  1  0  0  0  0
 37 17  1  0  0  0  0
 39 17  1  0  0  0  0
M  END
