315444558.xyz
 OpenBabel08132112113D
SCC1(CCC1)Cn1cc([N+](=O)[O-])c(cc1=O)C
 34 35  0  0  0  0  0  0  0  0999 V2000
    0.0000    0.0000    0.0000 S   0  0  0  0  0  0  0  0  0  0  0  0
   -0.0000   -0.0000    1.8326 C   0  0  0  0  0  0  0  0  0  0  0  0
    1.3807    0.0000    2.5039 C   0  0  0  0  0  0  0  0  0  0  0  0
    2.1908   -1.2850    2.1678 C   0  0  0  0  0  0  0  0  0  0  0  0
    1.6854   -1.9248    3.4834 C   0  0  0  0  0  0  0  0  0  0  0  0
    1.2713   -0.5170    3.9763 C   0  0  0  0  0  0  0  0  0  0  0  0
    2.1490    1.3046    2.2768 C   0  0  0  0  0  0  0  0  0  0  0  0
    1.4537    2.5003    2.7824 N   0  0  0  0  0  0  0  0  0  0  0  0
    1.4401    2.7550    4.1027 C   0  0  0  0  0  0  0  0  0  0  0  0
    0.7698    3.8250    4.6473 C   0  0  0  0  0  0  0  0  0  0  0  0
    0.8579    3.9573    6.0984 N   0  0  0  0  0  0  0  0  0  0  0  0
    1.5335    3.1376    6.7082 O   0  0  0  0  0  0  0  0  0  0  0  0
    0.2513    4.8760    6.6302 O   0  0  0  0  0  0  0  0  0  0  0  0
    0.0464    4.7359    3.7982 C   0  0  0  0  0  0  0  0  0  0  0  0
    0.0891    4.4685    2.4528 C   0  0  0  0  0  0  0  0  0  0  0  0
    0.7914    3.3573    1.8511 C   0  0  0  0  0  0  0  0  0  0  0  0
    0.8464    3.1241    0.6513 O   0  0  0  0  0  0  0  0  0  0  0  0
   -0.7209    5.9265    4.2993 C   0  0  0  0  0  0  0  0  0  0  0  0
    0.3236    1.3095   -0.1374 H   0  0  0  0  0  0  0  0  0  0  0  0
   -0.6115    0.8378    2.2026 H   0  0  0  0  0  0  0  0  0  0  0  0
   -0.5354   -0.9195    2.1114 H   0  0  0  0  0  0  0  0  0  0  0  0
    3.2764   -1.1009    2.1857 H   0  0  0  0  0  0  0  0  0  0  0  0
    1.9372   -1.7708    1.2149 H   0  0  0  0  0  0  0  0  0  0  0  0
    2.4244   -2.4626    4.0944 H   0  0  0  0  0  0  0  0  0  0  0  0
    0.8230   -2.5891    3.3259 H   0  0  0  0  0  0  0  0  0  0  0  0
    0.2949   -0.4050    4.4730 H   0  0  0  0  0  0  0  0  0  0  0  0
    2.0423   -0.0817    4.6300 H   0  0  0  0  0  0  0  0  0  0  0  0
    2.3091    1.4645    1.2038 H   0  0  0  0  0  0  0  0  0  0  0  0
    3.1279    1.2494    2.7742 H   0  0  0  0  0  0  0  0  0  0  0  0
    1.9874    2.0801    4.7571 H   0  0  0  0  0  0  0  0  0  0  0  0
   -0.4266    5.1165    1.7435 H   0  0  0  0  0  0  0  0  0  0  0  0
   -1.5065    5.6220    5.0050 H   0  0  0  0  0  0  0  0  0  0  0  0
   -1.1748    6.4603    3.4536 H   0  0  0  0  0  0  0  0  0  0  0  0
   -0.0680    6.6124    4.8573 H   0  0  0  0  0  0  0  0  0  0  0  0
  1  2  1  0  0  0  0
  2 21  1  0  0  0  0
  2 20  1  0  0  0  0
  2  3  1  0  0  0  0
  3  6  1  0  0  0  0
  4 22  1  0  0  0  0
  4  3  1  0  0  0  0
  4  5  1  0  0  0  0
  5  6  1  0  0  0  0
  5 24  1  0  0  0  0
  6 26  1  0  0  0  0
  6 27  1  0  0  0  0
  7  3  1  0  0  0  0
  7 29  1  0  0  0  0
  7  8  1  0  0  0  0
  8  9  1  0  0  0  0
  9 10  2  0  0  0  0
  9 30  1  0  0  0  0
 10 11  1  0  0  0  0
 11 13  2  0  0  0  0
 11 12  2  0  0  0  0
 14 18  1  0  0  0  0
 14 10  1  0  0  0  0
 15 14  2  0  0  0  0
 16 15  1  0  0  0  0
 16  8  1  0  0  0  0
 17 16  2  0  0  0  0
 18 34  1  0  0  0  0
 18 32  1  0  0  0  0
 19  1  1  0  0  0  0
 23  4  1  0  0  0  0
 25  5  1  0  0  0  0
 28  7  1  0  0  0  0
 31 15  1  0  0  0  0
 33 18  1  0  0  0  0
M  END
