315415501.xyz
 OpenBabel08132112113D
CC(CCS)CCN1CCOC1=O
 30 30  0  0  1  0  0  0  0  0999 V2000
    1.0233   -1.2528    4.5191 C   0  0  0  0  0  0  0  0  0  0  0  0
    1.6076    0.0082    3.8687 C   0  0  1  0  0  0  0  0  0  0  0  0
    1.4455   -0.0000    2.3356 C   0  0  0  0  0  0  0  0  0  0  0  0
    0.0000    0.0000    1.8403 C   0  0  0  0  0  0  0  0  0  0  0  0
    0.0000    0.0000    0.0000 S   0  0  0  0  0  0  0  0  0  0  0  0
    1.0497    1.2981    4.4911 C   0  0  0  0  0  0  0  0  0  0  0  0
    1.4049    1.4786    5.9702 C   0  0  0  0  0  0  0  0  0  0  0  0
    0.9097    2.7173    6.5370 N   0  0  0  0  0  0  0  0  0  0  0  0
    1.4644    4.0222    6.2452 C   0  0  0  0  0  0  0  0  0  0  0  0
    0.5193    4.9070    7.0733 C   0  0  0  0  0  0  0  0  0  0  0  0
   -0.6751    4.1353    7.2021 O   0  0  0  0  0  0  0  0  0  0  0  0
   -0.3999    2.8204    6.9526 C   0  0  0  0  0  0  0  0  0  0  0  0
   -1.1993    1.9314    7.0831 O   0  0  0  0  0  0  0  0  0  0  0  0
   -0.0780   -1.2527    4.4837 H   0  0  0  0  0  0  0  0  0  0  0  0
    1.3784   -2.1609    4.0065 H   0  0  0  0  0  0  0  0  0  0  0  0
    1.3136   -1.3382    5.5770 H   0  0  0  0  0  0  0  0  0  0  0  0
    2.6984    0.0016    4.0535 H   0  0  0  0  0  0  0  0  0  0  0  0
    1.9640    0.8793    1.9154 H   0  0  0  0  0  0  0  0  0  0  0  0
    1.9593   -0.8873    1.9275 H   0  0  0  0  0  0  0  0  0  0  0  0
   -0.5376    0.8904    2.1975 H   0  0  0  0  0  0  0  0  0  0  0  0
   -0.5361   -0.8908    2.1984 H   0  0  0  0  0  0  0  0  0  0  0  0
   -1.3433   -0.0067   -0.1586 H   0  0  0  0  0  0  0  0  0  0  0  0
   -0.0496    1.3158    4.4059 H   0  0  0  0  0  0  0  0  0  0  0  0
    1.4285    2.1625    3.9179 H   0  0  0  0  0  0  0  0  0  0  0  0
    0.9652    0.6667    6.5655 H   0  0  0  0  0  0  0  0  0  0  0  0
    2.4983    1.4422    6.1141 H   0  0  0  0  0  0  0  0  0  0  0  0
    2.5140    4.1084    6.5689 H   0  0  0  0  0  0  0  0  0  0  0  0
    1.4180    4.2634    5.1655 H   0  0  0  0  0  0  0  0  0  0  0  0
    0.9301    5.1056    8.0780 H   0  0  0  0  0  0  0  0  0  0  0  0
    0.2767    5.8634    6.5906 H   0  0  0  0  0  0  0  0  0  0  0  0
  1 16  1  0  0  0  0
  2 17  1  1  0  0  0
  2  6  1  0  0  0  0
  2  1  1  0  0  0  0
  3  2  1  0  0  0  0
  4 20  1  0  0  0  0
  4 21  1  0  0  0  0
  4  3  1  0  0  0  0
  5  4  1  0  0  0  0
  6  7  1  0  0  0  0
  7 26  1  0  0  0  0
  7  8  1  0  0  0  0
  7 25  1  0  0  0  0
  8 12  1  0  0  0  0
  9  8  1  0  0  0  0
  9 27  1  0  0  0  0
  9 10  1  0  0  0  0
 10 11  1  0  0  0  0
 10 29  1  0  0  0  0
 12 13  2  0  0  0  0
 12 11  1  0  0  0  0
 14  1  1  0  0  0  0
 15  1  1  0  0  0  0
 18  3  1  0  0  0  0
 19  3  1  0  0  0  0
 22  5  1  0  0  0  0
 23  6  1  0  0  0  0
 24  6  1  0  0  0  0
 28  9  1  0  0  0  0
 30 10  1  0  0  0  0
M  END
