315433547.xyz
 OpenBabel08132112113D
SCCOCCOc1c(F)c(F)c(c(c1F)F)F
 27 27  0  0  0  0  0  0  0  0999 V2000
    0.0000    0.0000    0.0000 S   0  0  0  0  0  0  0  0  0  0  0  0
   -0.0000    0.0000    1.8402 C   0  0  0  0  0  0  0  0  0  0  0  0
    1.4419    0.0000    2.3443 C   0  0  0  0  0  0  0  0  0  0  0  0
    2.2643   -0.9599    1.7267 O   0  0  0  0  0  0  0  0  0  0  0  0
    1.9048   -2.3004    1.9474 C   0  0  0  0  0  0  0  0  0  0  0  0
    2.9635   -3.1546    1.2781 C   0  0  0  0  0  0  0  0  0  0  0  0
    2.6037   -4.5193    1.5152 O   0  0  0  0  0  0  0  0  0  0  0  0
    3.0356   -5.4589    0.6509 C   0  0  0  0  0  0  0  0  0  0  0  0
    2.0918   -6.3378    0.0938 C   0  0  0  0  0  0  0  0  0  0  0  0
    0.8057   -6.1980    0.3978 F   0  0  0  0  0  0  0  0  0  0  0  0
    2.4840   -7.3687   -0.7615 C   0  0  0  0  0  0  0  0  0  0  0  0
    1.5764   -8.1960   -1.2701 F   0  0  0  0  0  0  0  0  0  0  0  0
    3.8291   -7.5131   -1.1116 C   0  0  0  0  0  0  0  0  0  0  0  0
    4.7797   -6.6401   -0.5792 C   0  0  0  0  0  0  0  0  0  0  0  0
    4.3826   -5.6255    0.2946 C   0  0  0  0  0  0  0  0  0  0  0  0
    5.3110   -4.8160    0.8094 F   0  0  0  0  0  0  0  0  0  0  0  0
    6.0625   -6.7796   -0.8984 F   0  0  0  0  0  0  0  0  0  0  0  0
    4.2031   -8.4841   -1.9382 F   0  0  0  0  0  0  0  0  0  0  0  0
   -1.3328    0.1892   -0.1347 H   0  0  0  0  0  0  0  0  0  0  0  0
   -0.5060    0.9005    2.2196 H   0  0  0  0  0  0  0  0  0  0  0  0
   -0.5502   -0.8786    2.2101 H   0  0  0  0  0  0  0  0  0  0  0  0
    1.9100    0.9723    2.1285 H   0  0  0  0  0  0  0  0  0  0  0  0
    1.4317   -0.1392    3.4455 H   0  0  0  0  0  0  0  0  0  0  0  0
    0.9202   -2.5463    1.5088 H   0  0  0  0  0  0  0  0  0  0  0  0
    1.8636   -2.5356    3.0304 H   0  0  0  0  0  0  0  0  0  0  0  0
    3.9586   -2.9342    1.6935 H   0  0  0  0  0  0  0  0  0  0  0  0
    2.9811   -2.9438    0.1958 H   0  0  0  0  0  0  0  0  0  0  0  0
  1  2  1  0  0  0  0
  2 21  1  0  0  0  0
  2 20  1  0  0  0  0
  2  3  1  0  0  0  0
  3 23  1  0  0  0  0
  4  5  1  0  0  0  0
  4  3  1  0  0  0  0
  5 25  1  0  0  0  0
  6  7  1  0  0  0  0
  6 26  1  0  0  0  0
  6  5  1  0  0  0  0
  8  7  1  0  0  0  0
  9 10  1  0  0  0  0
  9  8  2  0  0  0  0
 11  9  1  0  0  0  0
 12 11  1  0  0  0  0
 13 11  2  0  0  0  0
 13 14  1  0  0  0  0
 14 15  2  0  0  0  0
 15  8  1  0  0  0  0
 15 16  1  0  0  0  0
 17 14  1  0  0  0  0
 18 13  1  0  0  0  0
 19  1  1  0  0  0  0
 22  3  1  0  0  0  0
 24  5  1  0  0  0  0
 27  6  1  0  0  0  0
M  END
