315488828.xyz
 OpenBabel08132112113D
SCC(C(C)(C)C)CN(CCc1ccncc1)C
 44 44  0  0  1  0  0  0  0  0999 V2000
    0.0000    0.0000    0.0000 S   0  0  0  0  0  0  0  0  0  0  0  0
    0.0000    0.0000    1.8429 C   0  0  0  0  0  0  0  0  0  0  0  0
    1.3533   -0.0000    2.5806 C   0  0  1  0  0  0  0  0  0  0  0  0
    2.1656   -1.3439    2.5290 C   0  0  0  0  0  0  0  0  0  0  0  0
    3.0388   -1.4642    1.2682 C   0  0  0  0  0  0  0  0  0  0  0  0
    1.2075   -2.5475    2.5930 C   0  0  0  0  0  0  0  0  0  0  0  0
    3.0932   -1.4246    3.7578 C   0  0  0  0  0  0  0  0  0  0  0  0
    2.1247    1.2669    2.1638 C   0  0  0  0  0  0  0  0  0  0  0  0
    3.2860    1.6253    2.9659 N   0  0  0  0  0  0  0  0  0  0  0  0
    4.1232    2.6284    2.3212 C   0  0  0  0  0  0  0  0  0  0  0  0
    4.8788    2.1366    1.0876 C   0  0  0  0  0  0  0  0  0  0  0  0
    5.8045    0.9594    1.2960 C   0  0  0  0  0  0  0  0  0  0  0  0
    6.2628    0.5517    2.5543 C   0  0  0  0  0  0  0  0  0  0  0  0
    7.1145   -0.5526    2.6482 C   0  0  0  0  0  0  0  0  0  0  0  0
    7.5338   -1.2602    1.5974 N   0  0  0  0  0  0  0  0  0  0  0  0
    7.1051   -0.8698    0.3939 C   0  0  0  0  0  0  0  0  0  0  0  0
    6.2514    0.2160    0.1943 C   0  0  0  0  0  0  0  0  0  0  0  0
    2.9289    2.0327    4.3108 C   0  0  0  0  0  0  0  0  0  0  0  0
    0.2750   -1.3110   -0.1749 H   0  0  0  0  0  0  0  0  0  0  0  0
   -0.6439   -0.8188    2.1844 H   0  0  0  0  0  0  0  0  0  0  0  0
   -0.5309    0.9325    2.0876 H   0  0  0  0  0  0  0  0  0  0  0  0
    1.0520    0.1171    3.6375 H   0  0  0  0  0  0  0  0  0  0  0  0
    3.8344   -0.7103    1.2619 H   0  0  0  0  0  0  0  0  0  0  0  0
    3.5307   -2.4498    1.2460 H   0  0  0  0  0  0  0  0  0  0  0  0
    2.4559   -1.3525    0.3443 H   0  0  0  0  0  0  0  0  0  0  0  0
    1.7844   -3.4796    2.6987 H   0  0  0  0  0  0  0  0  0  0  0  0
    0.5278   -2.4794    3.4586 H   0  0  0  0  0  0  0  0  0  0  0  0
    0.5924   -2.6480    1.6852 H   0  0  0  0  0  0  0  0  0  0  0  0
    2.5142   -1.3952    4.6960 H   0  0  0  0  0  0  0  0  0  0  0  0
    3.8083   -0.5931    3.7587 H   0  0  0  0  0  0  0  0  0  0  0  0
    3.6602   -2.3693    3.7449 H   0  0  0  0  0  0  0  0  0  0  0  0
    1.3989    2.1151    2.1536 H   0  0  0  0  0  0  0  0  0  0  0  0
    2.4394    1.1411    1.1207 H   0  0  0  0  0  0  0  0  0  0  0  0
    4.8543    2.9783    3.0671 H   0  0  0  0  0  0  0  0  0  0  0  0
    3.5322    3.5290    2.0348 H   0  0  0  0  0  0  0  0  0  0  0  0
    4.1770    1.8907    0.2747 H   0  0  0  0  0  0  0  0  0  0  0  0
    5.4715    2.9862    0.7033 H   0  0  0  0  0  0  0  0  0  0  0  0
    5.9476    1.0640    3.4628 H   0  0  0  0  0  0  0  0  0  0  0  0
    7.4675   -0.8832    3.6324 H   0  0  0  0  0  0  0  0  0  0  0  0
    7.4533   -1.4568   -0.4644 H   0  0  0  0  0  0  0  0  0  0  0  0
    5.9232    0.4733   -0.8163 H   0  0  0  0  0  0  0  0  0  0  0  0
    2.3798    1.2346    4.8281 H   0  0  0  0  0  0  0  0  0  0  0  0
    3.8383    2.2389    4.8964 H   0  0  0  0  0  0  0  0  0  0  0  0
    2.2949    2.9489    4.3302 H   0  0  0  0  0  0  0  0  0  0  0  0
  1  2  1  0  0  0  0
  2 21  1  0  0  0  0
  2 20  1  0  0  0  0
  2  3  1  0  0  0  0
  3 22  1  1  0  0  0
  4  3  1  0  0  0  0
  4  6  1  0  0  0  0
  4  7  1  0  0  0  0
  5  4  1  0  0  0  0
  6 26  1  0  0  0  0
  6 27  1  0  0  0  0
  7 30  1  0  0  0  0
  7 29  1  0  0  0  0
  8  3  1  0  0  0  0
  8  9  1  0  0  0  0
  9 18  1  0  0  0  0
 10  9  1  0  0  0  0
 10 34  1  0  0  0  0
 11 12  1  0  0  0  0
 11 10  1  0  0  0  0
 12 13  1  0  0  0  0
 13 14  1  0  0  0  0
 13 38  1  0  0  0  0
 14 39  1  0  0  0  0
 15 14  2  0  0  0  0
 16 15  2  0  0  0  0
 17 16  1  0  0  0  0
 17 12  2  0  0  0  0
 18 44  1  0  0  0  0
 18 42  1  0  0  0  0
 18 43  1  0  0  0  0
 19  1  1  0  0  0  0
 23  5  1  0  0  0  0
 24  5  1  0  0  0  0
 25  5  1  0  0  0  0
 28  6  1  0  0  0  0
 31  7  1  0  0  0  0
 32  8  1  0  0  0  0
 33  8  1  0  0  0  0
 35 10  1  0  0  0  0
 36 11  1  0  0  0  0
 37 11  1  0  0  0  0
 40 16  1  0  0  0  0
 41 17  1  0  0  0  0
M  RAD  1  13   2
M  END
