315586969.xyz
 OpenBabel08132112113D
FC(Oc1ccccc1n1cc(nc1S)C)F
 27 28  0  0  0  0  0  0  0  0999 V2000
    2.9165    3.8879    1.6893 F   0  0  0  0  0  0  0  0  0  0  0  0
    2.1605    3.0298    2.4154 C   0  0  0  0  0  0  0  0  0  0  0  0
    2.9700    2.0887    3.0115 O   0  0  0  0  0  0  0  0  0  0  0  0
    3.3744    1.0393    2.2136 C   0  0  0  0  0  0  0  0  0  0  0  0
    4.6664    1.0311    1.6912 C   0  0  0  0  0  0  0  0  0  0  0  0
    5.0884   -0.0404    0.9011 C   0  0  0  0  0  0  0  0  0  0  0  0
    4.2175   -1.1003    0.6338 C   0  0  0  0  0  0  0  0  0  0  0  0
    2.9274   -1.0976    1.1667 C   0  0  0  0  0  0  0  0  0  0  0  0
    2.4945   -0.0277    1.9580 C   0  0  0  0  0  0  0  0  0  0  0  0
    1.1790   -0.0000    2.4846 N   0  0  0  0  0  0  0  0  0  0  0  0
    0.8116    0.0783    3.8300 C   0  0  0  0  0  0  0  0  0  0  0  0
   -0.5611    0.1099    3.8470 C   0  0  0  0  0  0  0  0  0  0  0  0
   -1.0477    0.0632    2.5498 N   0  0  0  0  0  0  0  0  0  0  0  0
    0.0000    0.0000    1.7693 C   0  0  0  0  0  0  0  0  0  0  0  0
    0.0000    0.0000    0.0000 S   0  0  0  0  0  0  0  0  0  0  0  0
   -1.4815    0.1835    5.0207 C   0  0  0  0  0  0  0  0  0  0  0  0
    1.5742    3.7195    3.3963 F   0  0  0  0  0  0  0  0  0  0  0  0
    1.4025    2.5854    1.7475 H   0  0  0  0  0  0  0  0  0  0  0  0
    5.3178    1.8785    1.9089 H   0  0  0  0  0  0  0  0  0  0  0  0
    6.1001   -0.0438    0.4901 H   0  0  0  0  0  0  0  0  0  0  0  0
    4.5453   -1.9390    0.0165 H   0  0  0  0  0  0  0  0  0  0  0  0
    2.2404   -1.9240    0.9783 H   0  0  0  0  0  0  0  0  0  0  0  0
    1.5582    0.1039    4.6175 H   0  0  0  0  0  0  0  0  0  0  0  0
   -1.3400    0.1681   -0.0484 H   0  0  0  0  0  0  0  0  0  0  0  0
   -2.1222    1.0780    4.9580 H   0  0  0  0  0  0  0  0  0  0  0  0
   -2.1506   -0.6920    5.0506 H   0  0  0  0  0  0  0  0  0  0  0  0
   -0.9192    0.2245    5.9645 H   0  0  0  0  0  0  0  0  0  0  0  0
  1  2  1  0  0  0  0
  2  3  1  0  0  0  0
  2 17  1  0  0  0  0
  4  3  1  0  0  0  0
  5 19  1  0  0  0  0
  5  4  2  0  0  0  0
  6  5  1  0  0  0  0
  7  6  2  0  0  0  0
  7  8  1  0  0  0  0
  8  9  2  0  0  0  0
  9  4  1  0  0  0  0
  9 10  1  0  0  0  0
 10 11  1  0  0  0  0
 11 12  1  0  0  0  0
 11 23  1  0  0  0  0
 12 16  1  0  0  0  0
 13 12  2  0  0  0  0
 14 10  1  0  0  0  0
 14 13  2  0  0  0  0
 15 14  1  0  0  0  0
 16 26  1  0  0  0  0
 16 27  1  0  0  0  0
 18  2  1  0  0  0  0
 20  6  1  0  0  0  0
 21  7  1  0  0  0  0
 22  8  1  0  0  0  0
 24 15  1  0  0  0  0
 25 16  1  0  0  0  0
M  RAD  1  11   2
M  END
