315584922.xyz
 OpenBabel08132112113D
Cc1cn(c(n1)S)c1ccc2c(c1)cccn2
 28 30  0  0  1  0  0  0  0  0999 V2000
   -1.6930   -0.1098    4.9214 C   0  0  0  0  0  0  0  0  0  0  0  0
   -0.6987   -0.0538    3.8079 C   0  0  0  0  0  0  0  0  0  0  0  0
    0.6739   -0.0121    3.8782 C   0  0  0  0  0  0  0  0  0  0  0  0
    1.1332   -0.0000    2.5629 N   0  0  0  0  0  0  0  0  0  0  0  0
   -0.0000   -0.0000    1.7681 C   0  0  0  0  0  0  0  0  0  0  0  0
   -1.0953   -0.0329    2.4860 N   0  0  0  0  0  0  0  0  0  0  0  0
    0.0000    0.0000    0.0000 S   0  0  0  0  0  0  0  0  0  0  0  0
    2.4951    0.0513    2.1683 C   0  0  0  0  0  0  0  0  0  0  0  0
    2.9954   -0.8974    1.2330 C   0  0  0  0  0  0  0  0  0  0  0  0
    4.3194   -0.8696    0.8611 C   0  0  0  0  0  0  0  0  0  0  0  0
    5.2143    0.0899    1.4108 C   0  0  0  0  0  0  0  0  0  0  0  0
    4.7085    1.0348    2.3632 C   0  0  2  0  0  0  0  0  0  0  0  0
    3.3360    0.9987    2.7202 C   0  0  0  0  0  0  0  0  0  0  0  0
    5.6242    1.9808    2.8956 C   0  0  0  0  0  0  0  0  0  0  0  0
    6.9370    1.9490    2.4832 C   0  0  0  0  0  0  0  0  0  0  0  0
    7.3326    0.9671    1.5356 C   0  0  0  0  0  0  0  0  0  0  0  0
    6.5164    0.0760    1.0182 N   0  0  0  0  0  0  0  0  0  0  0  0
   -2.3026   -1.0258    4.8559 H   0  0  0  0  0  0  0  0  0  0  0  0
   -1.1955   -0.0935    5.9020 H   0  0  0  0  0  0  0  0  0  0  0  0
   -2.3879    0.7438    4.8675 H   0  0  0  0  0  0  0  0  0  0  0  0
    1.3658   -0.0187    4.7157 H   0  0  0  0  0  0  0  0  0  0  0  0
    1.0763    0.8071   -0.1504 H   0  0  0  0  0  0  0  0  0  0  0  0
    2.3140   -1.6416    0.8209 H   0  0  0  0  0  0  0  0  0  0  0  0
    4.7268   -1.5880    0.1480 H   0  0  0  0  0  0  0  0  0  0  0  0
    2.9422    1.7302    3.4288 H   0  0  0  0  0  0  0  0  0  0  0  0
    5.2753    2.7189    3.6227 H   0  0  0  0  0  0  0  0  0  0  0  0
    7.6713    2.6590    2.8691 H   0  0  0  0  0  0  0  0  0  0  0  0
    8.3770    0.9327    1.2016 H   0  0  0  0  0  0  0  0  0  0  0  0
  1 19  1  0  0  0  0
  2  3  1  0  0  0  0
  2  1  1  0  0  0  0
  3 21  1  0  0  0  0
  4  3  1  0  0  0  0
  5  6  2  0  0  0  0
  5  4  1  0  0  0  0
  6  2  2  0  0  0  0
  7  5  1  0  0  0  0
  8  4  1  0  0  0  0
  8 13  2  0  0  0  0
  9  8  1  0  0  0  0
 10  9  2  0  0  0  0
 10 11  1  0  0  0  0
 12 11  1  6  0  0  0
 12 13  1  0  0  0  0
 12 14  1  0  0  0  0
 13 25  1  0  0  0  0
 14 26  1  0  0  0  0
 15 27  1  0  0  0  0
 15 14  2  0  0  0  0
 16 15  1  0  0  0  0
 17 11  2  0  0  0  0
 17 16  2  0  0  0  0
 18  1  1  0  0  0  0
 20  1  1  0  0  0  0
 22  7  1  0  0  0  0
 23  9  1  0  0  0  0
 24 10  1  0  0  0  0
 28 16  1  0  0  0  0
M  RAD  2   3   2  12   2
M  END
