315527362.xyz
 OpenBabel08132112113D
CCc1cnc(n1C(CC(C)(C)C)(C)C)S
 40 40  0  0  1  0  0  0  0  0999 V2000
    0.4090    0.5057    6.4069 C   0  0  0  0  0  0  0  0  0  0  0  0
    1.3350    0.2676    5.2125 C   0  0  0  0  0  0  0  0  0  0  0  0
    0.5828    0.1358    3.9186 C   0  0  1  0  0  0  0  0  0  0  0  0
   -0.7836    0.1621    3.7578 C   0  0  0  0  0  0  0  0  0  0  0  0
   -1.1323    0.0767    2.4370 N   0  0  0  0  0  0  0  0  0  0  0  0
   -0.0000    0.0000    1.7796 C   0  0  0  0  0  0  0  0  0  0  0  0
    1.1071   -0.0000    2.6140 N   0  0  0  0  0  0  0  0  0  0  0  0
    2.5419    0.0751    2.1669 C   0  0  0  0  0  0  0  0  0  0  0  0
    2.7583    1.5739    1.8146 C   0  0  0  0  0  0  0  0  0  0  0  0
    4.1234    2.1819    1.3919 C   0  0  0  0  0  0  0  0  0  0  0  0
    4.7679    1.4561    0.1999 C   0  0  0  0  0  0  0  0  0  0  0  0
    3.8109    3.6298    0.9596 C   0  0  0  0  0  0  0  0  0  0  0  0
    5.1294    2.2472    2.5556 C   0  0  0  0  0  0  0  0  0  0  0  0
    2.7355   -0.8820    0.9726 C   0  0  0  0  0  0  0  0  0  0  0  0
    3.4791   -0.4367    3.2700 C   0  0  0  0  0  0  0  0  0  0  0  0
    0.0000    0.0000    0.0000 S   0  0  0  0  0  0  0  0  0  0  0  0
    0.9984    0.6090    7.3304 H   0  0  0  0  0  0  0  0  0  0  0  0
   -0.1864    1.4226    6.2789 H   0  0  0  0  0  0  0  0  0  0  0  0
   -0.2905   -0.3328    6.5468 H   0  0  0  0  0  0  0  0  0  0  0  0
    1.9393   -0.6311    5.4131 H   0  0  0  0  0  0  0  0  0  0  0  0
    2.0510    1.1049    5.1528 H   0  0  0  0  0  0  0  0  0  0  0  0
   -1.5389    0.2404    4.5364 H   0  0  0  0  0  0  0  0  0  0  0  0
    2.4102    2.1455    2.6911 H   0  0  0  0  0  0  0  0  0  0  0  0
    2.0379    1.7981    1.0118 H   0  0  0  0  0  0  0  0  0  0  0  0
    4.0573    1.3386   -0.6330 H   0  0  0  0  0  0  0  0  0  0  0  0
    5.1404    0.4587    0.4726 H   0  0  0  0  0  0  0  0  0  0  0  0
    5.6293    2.0333   -0.1733 H   0  0  0  0  0  0  0  0  0  0  0  0
    4.7324    4.1594    0.6704 H   0  0  0  0  0  0  0  0  0  0  0  0
    3.3386    4.1963    1.7783 H   0  0  0  0  0  0  0  0  0  0  0  0
    3.1238    3.6484    0.0987 H   0  0  0  0  0  0  0  0  0  0  0  0
    5.5029    1.2571    2.8476 H   0  0  0  0  0  0  0  0  0  0  0  0
    6.0039    2.8523    2.2669 H   0  0  0  0  0  0  0  0  0  0  0  0
    4.6790    2.7166    3.4452 H   0  0  0  0  0  0  0  0  0  0  0  0
    2.3763   -0.4697    0.0239 H   0  0  0  0  0  0  0  0  0  0  0  0
    2.2159   -1.8325    1.1614 H   0  0  0  0  0  0  0  0  0  0  0  0
    3.8007   -1.1028    0.8395 H   0  0  0  0  0  0  0  0  0  0  0  0
    3.1313   -1.4083    3.6487 H   0  0  0  0  0  0  0  0  0  0  0  0
    4.4773   -0.5880    2.8415 H   0  0  0  0  0  0  0  0  0  0  0  0
    3.5864    0.2570    4.1076 H   0  0  0  0  0  0  0  0  0  0  0  0
   -1.3245    0.2705   -0.0136 H   0  0  0  0  0  0  0  0  0  0  0  0
  1 19  1  0  0  0  0
  1 17  1  0  0  0  0
  2 20  1  0  0  0  0
  2  1  1  0  0  0  0
  3  2  1  6  0  0  0
  4  3  1  0  0  0  0
  4 22  1  0  0  0  0
  5  4  2  0  0  0  0
  6  5  2  0  0  0  0
  6  7  1  0  0  0  0
  7  3  1  0  0  0  0
  8  7  1  0  0  0  0
  8 15  1  0  0  0  0
  9  8  1  0  0  0  0
  9 23  1  0  0  0  0
 10  9  1  0  0  0  0
 10 13  1  0  0  0  0
 11 26  1  0  0  0  0
 11 10  1  0  0  0  0
 12 10  1  0  0  0  0
 12 29  1  0  0  0  0
 13 31  1  0  0  0  0
 13 33  1  0  0  0  0
 14 35  1  0  0  0  0
 14  8  1  0  0  0  0
 15 37  1  0  0  0  0
 15 39  1  0  0  0  0
 16  6  1  0  0  0  0
 18  1  1  0  0  0  0
 21  2  1  0  0  0  0
 24  9  1  0  0  0  0
 25 11  1  0  0  0  0
 27 11  1  0  0  0  0
 28 12  1  0  0  0  0
 30 12  1  0  0  0  0
 32 13  1  0  0  0  0
 34 14  1  0  0  0  0
 36 14  1  0  0  0  0
 38 15  1  0  0  0  0
 40 16  1  0  0  0  0
M  RAD  1   3   2
M  END
