315640549.xyz
 OpenBabel08132112113D
Brc1cc(F)c(c(c1)F)c1nnc(n1C(C)C)S
 28 29  0  0  0  0  0  0  0  0999 V2000
    3.9139   -0.1038    9.0669 Br  0  0  0  0  0  0  0  0  0  0  0  0
    2.9145   -0.0671    7.4539 C   0  0  0  0  0  0  0  0  0  0  0  0
    3.0464   -1.1206    6.5458 C   0  0  0  0  0  0  0  0  0  0  0  0
    2.2980   -1.0668    5.3757 C   0  0  0  0  0  0  0  0  0  0  0  0
    2.4102   -2.0754    4.5004 F   0  0  0  0  0  0  0  0  0  0  0  0
    1.4324   -0.0105    5.0596 C   0  0  0  0  0  0  0  0  0  0  0  0
    1.3452    1.0202    6.0081 C   0  0  0  0  0  0  0  0  0  0  0  0
    2.0660    1.0118    7.1998 C   0  0  0  0  0  0  0  0  0  0  0  0
    0.5556    2.0600    5.7541 F   0  0  0  0  0  0  0  0  0  0  0  0
    0.6139   -0.0024    3.8384 C   0  0  0  0  0  0  0  0  0  0  0  0
   -0.6978   -0.0017    3.8096 N   0  0  0  0  0  0  0  0  0  0  0  0
   -1.0887   -0.0021    2.5012 N   0  0  0  0  0  0  0  0  0  0  0  0
    0.0000    0.0000    1.7620 C   0  0  0  0  0  0  0  0  0  0  0  0
    1.1233   -0.0000    2.5503 N   0  0  0  0  0  0  0  0  0  0  0  0
    2.5407    0.0750    2.1580 C   0  0  0  0  0  0  0  0  0  0  0  0
    2.9639   -1.1636    1.3686 C   0  0  0  0  0  0  0  0  0  0  0  0
    2.8410    1.3939    1.4436 C   0  0  0  0  0  0  0  0  0  0  0  0
    0.0000    0.0000    0.0000 S   0  0  0  0  0  0  0  0  0  0  0  0
    3.6997   -1.9715    6.7344 H   0  0  0  0  0  0  0  0  0  0  0  0
    1.9591    1.8404    7.8988 H   0  0  0  0  0  0  0  0  0  0  0  0
    3.0903    0.0768    3.1094 H   0  0  0  0  0  0  0  0  0  0  0  0
    2.7516   -2.0750    1.9442 H   0  0  0  0  0  0  0  0  0  0  0  0
    4.0446   -1.1223    1.1652 H   0  0  0  0  0  0  0  0  0  0  0  0
    2.4399   -1.2298    0.4034 H   0  0  0  0  0  0  0  0  0  0  0  0
    2.5406    2.2498    2.0662 H   0  0  0  0  0  0  0  0  0  0  0  0
    3.9204    1.4709    1.2439 H   0  0  0  0  0  0  0  0  0  0  0  0
    2.3104    1.4663    0.4827 H   0  0  0  0  0  0  0  0  0  0  0  0
   -1.3521    0.0278   -0.0385 H   0  0  0  0  0  0  0  0  0  0  0  0
  2  1  1  0  0  0  0
  3 19  1  0  0  0  0
  3  2  2  0  0  0  0
  4  3  1  0  0  0  0
  5  4  1  0  0  0  0
  6  4  2  0  0  0  0
  6  7  1  0  0  0  0
  7  8  2  0  0  0  0
  8  2  1  0  0  0  0
  8 20  1  0  0  0  0
  9  7  1  0  0  0  0
 10  6  1  0  0  0  0
 11 10  2  0  0  0  0
 12 11  1  0  0  0  0
 13 12  2  0  0  0  0
 13 14  1  0  0  0  0
 14 10  1  0  0  0  0
 15 14  1  0  0  0  0
 15 21  1  0  0  0  0
 16 22  1  0  0  0  0
 16 15  1  0  0  0  0
 17 25  1  0  0  0  0
 17 15  1  0  0  0  0
 18 13  1  0  0  0  0
 23 16  1  0  0  0  0
 24 16  1  0  0  0  0
 26 17  1  0  0  0  0
 27 17  1  0  0  0  0
 28 18  1  0  0  0  0
M  END
