315640552.xyz
 OpenBabel08132112113D
Sc1nnc(n1C(C)(C)C)CCc1ccco1
 34 35  0  0  0  0  0  0  0  0999 V2000
    0.0000    0.0000    0.0000 S   0  0  0  0  0  0  0  0  0  0  0  0
   -0.0000    0.0000    1.7687 C   0  0  0  0  0  0  0  0  0  0  0  0
    1.1163    0.0000    2.4535 N   0  0  0  0  0  0  0  0  0  0  0  0
    0.7786   -0.0003    3.7747 N   0  0  0  0  0  0  0  0  0  0  0  0
   -0.5283    0.0001    3.8799 C   0  0  0  0  0  0  0  0  0  0  0  0
   -1.1032   -0.0001    2.6061 N   0  0  0  0  0  0  0  0  0  0  0  0
   -2.5316   -0.0042    2.1491 C   0  0  0  0  0  0  0  0  0  0  0  0
   -3.5147   -0.0030    3.3244 C   0  0  0  0  0  0  0  0  0  0  0  0
   -2.7795   -1.2813    1.3285 C   0  0  0  0  0  0  0  0  0  0  0  0
   -2.7856    1.2676    1.3220 C   0  0  0  0  0  0  0  0  0  0  0  0
   -1.1997   -0.0043    5.2209 C   0  0  0  0  0  0  0  0  0  0  0  0
   -0.1773    0.0451    6.3681 C   0  0  0  0  0  0  0  0  0  0  0  0
   -0.8373    0.0534    7.7020 C   0  0  0  0  0  0  0  0  0  0  0  0
   -0.7922   -0.7824    8.7848 C   0  0  0  0  0  0  0  0  0  0  0  0
   -1.6727   -0.2232    9.7738 C   0  0  0  0  0  0  0  0  0  0  0  0
   -2.1921    0.9086    9.2168 C   0  0  0  0  0  0  0  0  0  0  0  0
   -1.6943    1.0849    7.9631 O   0  0  0  0  0  0  0  0  0  0  0  0
    1.3530   -0.0001   -0.0203 H   0  0  0  0  0  0  0  0  0  0  0  0
   -3.4117   -0.8937    3.9563 H   0  0  0  0  0  0  0  0  0  0  0  0
   -4.5316   -0.0093    2.9073 H   0  0  0  0  0  0  0  0  0  0  0  0
   -3.4189    0.8945    3.9475 H   0  0  0  0  0  0  0  0  0  0  0  0
   -3.8239   -1.3026    0.9835 H   0  0  0  0  0  0  0  0  0  0  0  0
   -2.6014   -2.1718    1.9501 H   0  0  0  0  0  0  0  0  0  0  0  0
   -2.1303   -1.3488    0.4459 H   0  0  0  0  0  0  0  0  0  0  0  0
   -2.1388    1.3329    0.4375 H   0  0  0  0  0  0  0  0  0  0  0  0
   -3.8309    1.2830    0.9792 H   0  0  0  0  0  0  0  0  0  0  0  0
   -2.6095    2.1620    1.9385 H   0  0  0  0  0  0  0  0  0  0  0  0
   -1.8785    0.8543    5.3231 H   0  0  0  0  0  0  0  0  0  0  0  0
   -1.8245   -0.9034    5.3396 H   0  0  0  0  0  0  0  0  0  0  0  0
    0.5012   -0.8160    6.3088 H   0  0  0  0  0  0  0  0  0  0  0  0
    0.4574    0.9372    6.2449 H   0  0  0  0  0  0  0  0  0  0  0  0
   -0.1951   -1.6877    8.8672 H   0  0  0  0  0  0  0  0  0  0  0  0
   -1.8868   -0.6147   10.7659 H   0  0  0  0  0  0  0  0  0  0  0  0
   -2.8922    1.6627    9.5657 H   0  0  0  0  0  0  0  0  0  0  0  0
  1  2  1  0  0  0  0
  2  3  2  0  0  0  0
  2  6  1  0  0  0  0
  3  4  1  0  0  0  0
  4  5  2  0  0  0  0
  5 11  1  0  0  0  0
  6  5  1  0  0  0  0
  7  6  1  0  0  0  0
  7  8  1  0  0  0  0
  8 21  1  0  0  0  0
  8 19  1  0  0  0  0
  9 23  1  0  0  0  0
  9  7  1  0  0  0  0
 10 27  1  0  0  0  0
 10  7  1  0  0  0  0
 11 28  1  0  0  0  0
 11 29  1  0  0  0  0
 11 12  1  0  0  0  0
 12 13  1  0  0  0  0
 13 17  1  0  0  0  0
 13 14  2  0  0  0  0
 14 32  1  0  0  0  0
 14 15  1  0  0  0  0
 15 33  1  0  0  0  0
 16 34  1  0  0  0  0
 16 15  2  0  0  0  0
 17 16  1  0  0  0  0
 18  1  1  0  0  0  0
 20  8  1  0  0  0  0
 22  9  1  0  0  0  0
 24  9  1  0  0  0  0
 25 10  1  0  0  0  0
 26 10  1  0  0  0  0
 30 12  1  0  0  0  0
 31 12  1  0  0  0  0
M  END
