315655939.xyz
 OpenBabel08132112113D
OCc1nnc(n1c1ccc(cc1Cl)C)S
 26 27  0  0  0  0  0  0  0  0999 V2000
    2.0213    1.6175    5.1605 O   0  0  0  0  0  0  0  0  0  0  0  0
    1.5378    0.2886    5.0387 C   0  0  0  0  0  0  0  0  0  0  0  0
    0.6719    0.1236    3.8335 C   0  0  0  0  0  0  0  0  0  0  0  0
   -0.6381    0.2110    3.8201 N   0  0  0  0  0  0  0  0  0  0  0  0
   -1.0603    0.1265    2.5218 N   0  0  0  0  0  0  0  0  0  0  0  0
    0.0000   -0.0000    1.7598 C   0  0  0  0  0  0  0  0  0  0  0  0
    1.1434    0.0000    2.5449 N   0  0  0  0  0  0  0  0  0  0  0  0
    2.4977   -0.0884    2.1311 C   0  0  0  0  0  0  0  0  0  0  0  0
    3.3453    1.0161    2.2746 C   0  0  0  0  0  0  0  0  0  0  0  0
    4.6756    0.9422    1.8736 C   0  0  0  0  0  0  0  0  0  0  0  0
    5.1978   -0.2331    1.3093 C   0  0  0  0  0  0  0  0  0  0  0  0
    4.3526   -1.3425    1.1819 C   0  0  0  0  0  0  0  0  0  0  0  0
    3.0213   -1.2742    1.5953 C   0  0  0  0  0  0  0  0  0  0  0  0
    2.0184   -2.6995    1.4742 Cl  0  0  0  0  0  0  0  0  0  0  0  0
    6.6294   -0.2947    0.8440 C   0  0  0  0  0  0  0  0  0  0  0  0
    0.0000    0.0000    0.0000 S   0  0  0  0  0  0  0  0  0  0  0  0
    1.2503    2.1948    5.2532 H   0  0  0  0  0  0  0  0  0  0  0  0
    0.9474   -0.0220    5.9179 H   0  0  0  0  0  0  0  0  0  0  0  0
    2.4242   -0.3591    4.9708 H   0  0  0  0  0  0  0  0  0  0  0  0
    2.9448    1.9176    2.7382 H   0  0  0  0  0  0  0  0  0  0  0  0
    5.3216    1.8142    1.9995 H   0  0  0  0  0  0  0  0  0  0  0  0
    4.7269   -2.2795    0.7666 H   0  0  0  0  0  0  0  0  0  0  0  0
    6.7586    0.2686   -0.0957 H   0  0  0  0  0  0  0  0  0  0  0  0
    6.9527   -1.3292    0.6602 H   0  0  0  0  0  0  0  0  0  0  0  0
    7.3088    0.1527    1.5858 H   0  0  0  0  0  0  0  0  0  0  0  0
    0.5562   -1.2280   -0.1386 H   0  0  0  0  0  0  0  0  0  0  0  0
  1 17  1  0  0  0  0
  2  1  1  0  0  0  0
  2 18  1  0  0  0  0
  3  2  1  0  0  0  0
  4  3  2  0  0  0  0
  5  4  1  0  0  0  0
  6  5  2  0  0  0  0
  6  7  1  0  0  0  0
  7  3  1  0  0  0  0
  8  9  1  0  0  0  0
  8  7  1  0  0  0  0
  9 20  1  0  0  0  0
 10 21  1  0  0  0  0
 10  9  2  0  0  0  0
 11 10  1  0  0  0  0
 12 11  2  0  0  0  0
 12 13  1  0  0  0  0
 13  8  2  0  0  0  0
 14 13  1  0  0  0  0
 15 11  1  0  0  0  0
 15 25  1  0  0  0  0
 16  6  1  0  0  0  0
 19  2  1  0  0  0  0
 22 12  1  0  0  0  0
 23 15  1  0  0  0  0
 24 15  1  0  0  0  0
 26 16  1  0  0  0  0
M  END
