315702040.xyz
 OpenBabel08132112113D
Fc1cc(F)c2c(c1)n(c1ccccc1)c(n2)S
 26 28  0  0  1  0  0  0  0  0999 V2000
   -1.5858    0.1301    7.3305 F   0  0  0  0  0  0  0  0  0  0  0  0
   -0.9075    0.1021    6.1734 C   0  0  0  0  0  0  0  0  0  0  0  0
    0.4949    0.0819    6.2355 C   0  0  0  0  0  0  0  0  0  0  0  0
    1.2299    0.0487    5.0562 C   0  0  0  0  0  0  0  0  0  0  0  0
    2.5618    0.0225    5.1060 F   0  0  0  0  0  0  0  0  0  0  0  0
    0.5695    0.0409    3.8194 C   0  0  0  0  0  0  0  0  0  0  0  0
   -0.8479    0.0690    3.8184 C   0  0  2  0  0  0  0  0  0  0  0  0
   -1.6234    0.0944    4.9811 C   0  0  0  0  0  0  0  0  0  0  0  0
   -1.1991    0.0376    2.4715 N   0  0  0  0  0  0  0  0  0  0  0  0
   -2.5180    0.0740    1.9412 C   0  0  0  0  0  0  0  0  0  0  0  0
   -2.9602   -0.9481    1.0929 C   0  0  0  0  0  0  0  0  0  0  0  0
   -4.2530   -0.8974    0.5680 C   0  0  0  0  0  0  0  0  0  0  0  0
   -5.1093    0.1544    0.9047 C   0  0  0  0  0  0  0  0  0  0  0  0
   -4.6671    1.1654    1.7636 C   0  0  0  0  0  0  0  0  0  0  0  0
   -3.3699    1.1336    2.2770 C   0  0  0  0  0  0  0  0  0  0  0  0
   -0.0000   -0.0000    1.7620 C   0  0  0  0  0  0  0  0  0  0  0  0
    1.0582   -0.0000    2.5255 N   0  0  0  0  0  0  0  0  0  0  0  0
    0.0000    0.0000    0.0000 S   0  0  0  0  0  0  0  0  0  0  0  0
    1.0008    0.0899    7.2008 H   0  0  0  0  0  0  0  0  0  0  0  0
   -2.7124    0.1051    4.9799 H   0  0  0  0  0  0  0  0  0  0  0  0
   -2.2916   -1.7758    0.8515 H   0  0  0  0  0  0  0  0  0  0  0  0
   -4.5956   -1.6922   -0.0983 H   0  0  0  0  0  0  0  0  0  0  0  0
   -6.1227    0.1863    0.4986 H   0  0  0  0  0  0  0  0  0  0  0  0
   -5.3318    1.9912    2.0268 H   0  0  0  0  0  0  0  0  0  0  0  0
   -3.0066    1.9280    2.9313 H   0  0  0  0  0  0  0  0  0  0  0  0
    1.3501    0.0495   -0.0450 H   0  0  0  0  0  0  0  0  0  0  0  0
  2  3  1  0  0  0  0
  2  1  1  0  0  0  0
  3 19  1  0  0  0  0
  4  5  1  0  0  0  0
  4  3  2  0  0  0  0
  6  4  1  0  0  0  0
  7  6  1  1  0  0  0
  7  8  1  0  0  0  0
  8  2  2  0  0  0  0
  9  7  1  0  0  0  0
 10 15  1  0  0  0  0
 10  9  1  0  0  0  0
 11 10  2  0  0  0  0
 12 13  2  0  0  0  0
 12 11  1  0  0  0  0
 13 14  1  0  0  0  0
 14 24  1  0  0  0  0
 14 15  2  0  0  0  0
 15 25  1  0  0  0  0
 16  9  1  0  0  0  0
 16 17  2  0  0  0  0
 17  6  2  0  0  0  0
 18 16  1  0  0  0  0
 20  8  1  0  0  0  0
 21 11  1  0  0  0  0
 22 12  1  0  0  0  0
 23 13  1  0  0  0  0
 26 18  1  0  0  0  0
M  RAD  1   7   2
M  END
