315711805.xyz
 OpenBabel08132112113D
CCCn1c(S)nnc1c1ccc(cc1Br)C
 31 32  0  0  0  0  0  0  0  0999 V2000
    4.2928    1.8113    1.2415 C   0  0  0  0  0  0  0  0  0  0  0  0
    2.8687    1.6445    1.7652 C   0  0  0  0  0  0  0  0  0  0  0  0
    2.5120    0.1755    1.9961 C   0  0  0  0  0  0  0  0  0  0  0  0
    1.1563   -0.0000    2.4960 N   0  0  0  0  0  0  0  0  0  0  0  0
    0.0000    0.0000    1.7611 C   0  0  0  0  0  0  0  0  0  0  0  0
    0.0000    0.0000    0.0000 S   0  0  0  0  0  0  0  0  0  0  0  0
   -1.0543    0.0039    2.5430 N   0  0  0  0  0  0  0  0  0  0  0  0
   -0.5982    0.0181    3.8374 N   0  0  0  0  0  0  0  0  0  0  0  0
    0.7146    0.0125    3.8072 C   0  0  0  0  0  0  0  0  0  0  0  0
    1.5960    0.0722    4.9866 C   0  0  0  0  0  0  0  0  0  0  0  0
    1.5118    1.1872    5.8400 C   0  0  0  0  0  0  0  0  0  0  0  0
    2.3072    1.2940    6.9760 C   0  0  0  0  0  0  0  0  0  0  0  0
    3.2258    0.2855    7.3090 C   0  0  0  0  0  0  0  0  0  0  0  0
    3.3061   -0.8381    6.4775 C   0  0  0  0  0  0  0  0  0  0  0  0
    2.4980   -0.9439    5.3429 C   0  0  0  0  0  0  0  0  0  0  0  0
    2.6067   -2.5512    4.3147 Br  0  0  0  0  0  0  0  0  0  0  0  0
    4.0954    0.4090    8.5335 C   0  0  0  0  0  0  0  0  0  0  0  0
    4.5373    2.8728    1.0852 H   0  0  0  0  0  0  0  0  0  0  0  0
    5.0308    1.3985    1.9490 H   0  0  0  0  0  0  0  0  0  0  0  0
    4.4289    1.2923    0.2784 H   0  0  0  0  0  0  0  0  0  0  0  0
    2.7440    2.1869    2.7177 H   0  0  0  0  0  0  0  0  0  0  0  0
    2.1457    2.0812    1.0561 H   0  0  0  0  0  0  0  0  0  0  0  0
    3.2010   -0.2829    2.7173 H   0  0  0  0  0  0  0  0  0  0  0  0
    2.6055   -0.4032    1.0630 H   0  0  0  0  0  0  0  0  0  0  0  0
   -1.3505   -0.0288   -0.0535 H   0  0  0  0  0  0  0  0  0  0  0  0
    0.7961    1.9719    5.5883 H   0  0  0  0  0  0  0  0  0  0  0  0
    2.2156    2.1742    7.6174 H   0  0  0  0  0  0  0  0  0  0  0  0
    3.9925   -1.6506    6.7213 H   0  0  0  0  0  0  0  0  0  0  0  0
    4.7730    1.2750    8.4506 H   0  0  0  0  0  0  0  0  0  0  0  0
    3.4849    0.5627    9.4380 H   0  0  0  0  0  0  0  0  0  0  0  0
    4.7110   -0.4886    8.6865 H   0  0  0  0  0  0  0  0  0  0  0  0
  1  2  1  0  0  0  0
  1 19  1  0  0  0  0
  2  3  1  0  0  0  0
  2 21  1  0  0  0  0
  3  4  1  0  0  0  0
  3 23  1  0  0  0  0
  4  9  1  0  0  0  0
  5  4  1  0  0  0  0
  5  7  2  0  0  0  0
  6  5  1  0  0  0  0
  7  8  1  0  0  0  0
  9  8  2  0  0  0  0
  9 10  1  0  0  0  0
 10 15  2  0  0  0  0
 10 11  1  0  0  0  0
 11 12  2  0  0  0  0
 12 13  1  0  0  0  0
 12 27  1  0  0  0  0
 13 17  1  0  0  0  0
 14 28  1  0  0  0  0
 14 13  2  0  0  0  0
 15 14  1  0  0  0  0
 16 15  1  0  0  0  0
 17 31  1  0  0  0  0
 17 30  1  0  0  0  0
 18  1  1  0  0  0  0
 20  1  1  0  0  0  0
 22  2  1  0  0  0  0
 24  3  1  0  0  0  0
 25  6  1  0  0  0  0
 26 11  1  0  0  0  0
 29 17  1  0  0  0  0
M  END
