315884561.xyz
 OpenBabel08132112113D
Clc1ccc2c(c1)n(CCn1nncc1)c(n2)S
 28 30  0  0  1  0  0  0  0  0999 V2000
    1.8536   -0.1208    7.6637 Cl  0  0  0  0  0  0  0  0  0  0  0  0
    0.9470   -0.0801    6.1681 C   0  0  2  0  0  0  0  0  0  0  0  0
   -0.4608   -0.0680    6.2278 C   0  0  0  0  0  0  0  0  0  0  0  0
   -1.2221   -0.0408    5.0607 C   0  0  0  0  0  0  0  0  0  0  0  0
   -0.5551   -0.0258    3.8292 C   0  0  0  0  0  0  0  0  0  0  0  0
    0.8637   -0.0324    3.8035 C   0  0  0  0  0  0  0  0  0  0  0  0
    1.6455   -0.0628    4.9589 C   0  0  0  0  0  0  0  0  0  0  0  0
    1.2019   -0.0000    2.4551 N   0  0  0  0  0  0  0  0  0  0  0  0
    2.5325   -0.0851    1.8997 C   0  0  0  0  0  0  0  0  0  0  0  0
    2.9665   -1.5422    1.6846 C   0  0  0  0  0  0  0  0  0  0  0  0
    4.3237   -1.6090    1.1833 N   0  0  0  0  0  0  0  0  0  0  0  0
    5.3449   -1.2626    1.9886 N   0  0  0  0  0  0  0  0  0  0  0  0
    6.4406   -1.3473    1.2993 N   0  0  0  0  0  0  0  0  0  0  0  0
    6.1423   -1.7462    0.0321 C   0  0  0  0  0  0  0  0  0  0  0  0
    4.7749   -1.9158   -0.0617 C   0  0  0  0  0  0  0  0  0  0  0  0
    0.0000    0.0000    1.7638 C   0  0  0  0  0  0  0  0  0  0  0  0
   -1.0538   -0.0067    2.5344 N   0  0  0  0  0  0  0  0  0  0  0  0
    0.0000    0.0000    0.0000 S   0  0  0  0  0  0  0  0  0  0  0  0
   -0.9443   -0.0824    7.2052 H   0  0  0  0  0  0  0  0  0  0  0  0
   -2.3125   -0.0327    5.0975 H   0  0  0  0  0  0  0  0  0  0  0  0
    2.7357   -0.0772    4.9417 H   0  0  0  0  0  0  0  0  0  0  0  0
    3.2398    0.4064    2.5822 H   0  0  0  0  0  0  0  0  0  0  0  0
    2.5644    0.4656    0.9469 H   0  0  0  0  0  0  0  0  0  0  0  0
    2.3031   -2.0375    0.9624 H   0  0  0  0  0  0  0  0  0  0  0  0
    2.9156   -2.0902    2.6365 H   0  0  0  0  0  0  0  0  0  0  0  0
    6.9119   -1.8895   -0.7229 H   0  0  0  0  0  0  0  0  0  0  0  0
    4.1145   -2.2221   -0.8681 H   0  0  0  0  0  0  0  0  0  0  0  0
   -1.3492   -0.0139   -0.0626 H   0  0  0  0  0  0  0  0  0  0  0  0
  2  3  1  0  0  0  0
  2  1  1  6  0  0  0
  3 19  1  0  0  0  0
  4 20  1  0  0  0  0
  4  3  2  0  0  0  0
  5  4  1  0  0  0  0
  6  5  1  0  0  0  0
  6  7  2  0  0  0  0
  7  2  1  0  0  0  0
  8  6  1  0  0  0  0
  9  8  1  0  0  0  0
  9 22  1  0  0  0  0
 10  9  1  0  0  0  0
 10 25  1  0  0  0  0
 11 10  1  0  0  0  0
 11 12  1  0  0  0  0
 13 12  1  0  0  0  0
 14 13  2  0  0  0  0
 15 14  1  0  0  0  0
 15 11  1  0  0  0  0
 16  8  1  0  0  0  0
 16 17  2  0  0  0  0
 17  5  2  0  0  0  0
 18 16  1  0  0  0  0
 21  7  1  0  0  0  0
 23  9  1  0  0  0  0
 24 10  1  0  0  0  0
 26 14  1  0  0  0  0
 27 15  1  0  0  0  0
 28 18  1  0  0  0  0
M  RAD  3   2   2  12   2  15   2
M  END
