315890427.xyz
 OpenBabel08132112113D
CCc1nn(c2c1nc(n2C1(C)CCC1)S)C
 35 37  0  0  1  0  0  0  0  0999 V2000
   -3.2565   -0.9381    5.2751 C   0  0  0  0  0  0  0  0  0  0  0  0
   -2.3737    0.2152    5.7657 C   0  0  0  0  0  0  0  0  0  0  0  0
   -0.9975    0.1793    5.1765 C   0  0  0  0  0  0  0  0  0  0  0  0
    0.0949    0.2260    5.9360 N   0  0  0  0  0  0  0  0  0  0  0  0
    1.1937    0.1801    5.1129 N   0  0  0  0  0  0  0  0  0  0  0  0
    0.7785    0.0945    3.8199 C   0  0  2  0  0  0  0  0  0  0  0  0
   -0.6108    0.0983    3.8069 C   0  0  0  0  0  0  0  0  0  0  0  0
   -1.0816    0.0395    2.5076 N   0  0  0  0  0  0  0  0  0  0  0  0
    0.0000   -0.0000    1.7721 C   0  0  0  0  0  0  0  0  0  0  0  0
    1.2027   -0.0000    2.5040 N   0  0  0  0  0  0  0  0  0  0  0  0
    2.5634    0.0916    1.9747 C   0  0  0  0  0  0  0  0  0  0  0  0
    2.9288    1.5523    1.7140 C   0  0  0  0  0  0  0  0  0  0  0  0
    2.8910   -0.8458    0.7723 C   0  0  0  0  0  0  0  0  0  0  0  0
    4.2167   -1.2297    1.4672 C   0  0  0  0  0  0  0  0  0  0  0  0
    3.6440   -0.6751    2.7908 C   0  0  0  0  0  0  0  0  0  0  0  0
    0.0000    0.0000    0.0000 S   0  0  0  0  0  0  0  0  0  0  0  0
    2.5066    0.2534    5.7041 C   0  0  0  0  0  0  0  0  0  0  0  0
   -3.3362   -0.9275    4.1767 H   0  0  0  0  0  0  0  0  0  0  0  0
   -4.2727   -0.8659    5.6939 H   0  0  0  0  0  0  0  0  0  0  0  0
   -2.8331   -1.9115    5.5699 H   0  0  0  0  0  0  0  0  0  0  0  0
   -2.2776    0.2026    6.8622 H   0  0  0  0  0  0  0  0  0  0  0  0
   -2.8532    1.1747    5.4999 H   0  0  0  0  0  0  0  0  0  0  0  0
    3.9540    1.6378    1.3230 H   0  0  0  0  0  0  0  0  0  0  0  0
    2.8625    2.1368    2.6451 H   0  0  0  0  0  0  0  0  0  0  0  0
    2.2381    1.9910    0.9779 H   0  0  0  0  0  0  0  0  0  0  0  0
    2.1941   -1.6934    0.7244 H   0  0  0  0  0  0  0  0  0  0  0  0
    2.9438   -0.3715   -0.2177 H   0  0  0  0  0  0  0  0  0  0  0  0
    5.0724   -0.6443    1.1004 H   0  0  0  0  0  0  0  0  0  0  0  0
    4.4925   -2.2933    1.4543 H   0  0  0  0  0  0  0  0  0  0  0  0
    4.3062   -0.0665    3.4218 H   0  0  0  0  0  0  0  0  0  0  0  0
    3.1905   -1.4679    3.4013 H   0  0  0  0  0  0  0  0  0  0  0  0
   -1.3367    0.1929   -0.0393 H   0  0  0  0  0  0  0  0  0  0  0  0
    2.3667    0.5669    6.7455 H   0  0  0  0  0  0  0  0  0  0  0  0
    3.0267   -0.7184    5.6911 H   0  0  0  0  0  0  0  0  0  0  0  0
    3.1313    0.9965    5.1858 H   0  0  0  0  0  0  0  0  0  0  0  0
  1 20  1  0  0  0  0
  1 19  1  0  0  0  0
  1  2  1  0  0  0  0
  2 21  1  0  0  0  0
  3  2  1  0  0  0  0
  3  4  2  0  0  0  0
  5 17  1  0  0  0  0
  5  4  1  0  0  0  0
  6  7  1  1  0  0  0
  6  5  1  0  0  0  0
  7  3  1  0  0  0  0
  8  7  2  0  0  0  0
  9 10  1  0  0  0  0
  9  8  2  0  0  0  0
 10  6  1  0  0  0  0
 11 10  1  0  0  0  0
 11 15  1  0  0  0  0
 12 11  1  0  0  0  0
 12 24  1  0  0  0  0
 13 14  1  0  0  0  0
 13 11  1  0  0  0  0
 14 15  1  0  0  0  0
 15 31  1  0  0  0  0
 15 30  1  0  0  0  0
 16  9  1  0  0  0  0
 17 33  1  0  0  0  0
 18  1  1  0  0  0  0
 22  2  1  0  0  0  0
 23 12  1  0  0  0  0
 25 12  1  0  0  0  0
 26 13  1  0  0  0  0
 27 13  1  0  0  0  0
 28 14  1  0  0  0  0
 29 14  1  0  0  0  0
 32 16  1  0  0  0  0
 34 17  1  0  0  0  0
 35 17  1  0  0  0  0
M  RAD  1   6   2
M  END
