315830419.xyz
 OpenBabel08132112113D
SCC(=O)NCCn1ccnn1
 22 22  0  0  0  0  0  0  0  0999 V2000
    0.0000    0.0000    0.0000 S   0  0  0  0  0  0  0  0  0  0  0  0
    0.0000   -0.0000    1.8382 C   0  0  0  0  0  0  0  0  0  0  0  0
    1.4316    0.0000    2.3521 C   0  0  0  0  0  0  0  0  0  0  0  0
    2.1572   -0.9713    2.2088 O   0  0  0  0  0  0  0  0  0  0  0  0
    1.8577    1.1563    2.9335 N   0  0  0  0  0  0  0  0  0  0  0  0
    3.2598    1.3472    3.2567 C   0  0  0  0  0  0  0  0  0  0  0  0
    4.1196    1.5601    2.0044 C   0  0  0  0  0  0  0  0  0  0  0  0
    3.6880    2.7229    1.2526 N   0  0  0  0  0  0  0  0  0  0  0  0
    2.7200    2.8147    0.3023 C   0  0  0  0  0  0  0  0  0  0  0  0
    2.6412    4.1703    0.0453 C   0  0  0  0  0  0  0  0  0  0  0  0
    3.5390    4.8148    0.8410 N   0  0  0  0  0  0  0  0  0  0  0  0
    4.1627    3.9421    1.5717 N   0  0  0  0  0  0  0  0  0  0  0  0
    0.8070   -1.0822   -0.1010 H   0  0  0  0  0  0  0  0  0  0  0  0
   -0.5709    0.8874    2.1459 H   0  0  0  0  0  0  0  0  0  0  0  0
   -0.5128   -0.8984    2.2094 H   0  0  0  0  0  0  0  0  0  0  0  0
    1.2516    1.9671    2.9178 H   0  0  0  0  0  0  0  0  0  0  0  0
    3.3513    2.2173    3.9219 H   0  0  0  0  0  0  0  0  0  0  0  0
    3.6263    0.4562    3.7871 H   0  0  0  0  0  0  0  0  0  0  0  0
    4.0544    0.6749    1.3578 H   0  0  0  0  0  0  0  0  0  0  0  0
    5.1690    1.7208    2.2866 H   0  0  0  0  0  0  0  0  0  0  0  0
    2.1807    1.9509   -0.0811 H   0  0  0  0  0  0  0  0  0  0  0  0
    2.0074    4.7053   -0.6585 H   0  0  0  0  0  0  0  0  0  0  0  0
  1  2  1  0  0  0  0
  2 14  1  0  0  0  0
  2 15  1  0  0  0  0
  2  3  1  0  0  0  0
  3  5  1  0  0  0  0
  4  3  2  0  0  0  0
  5  6  1  0  0  0  0
  6 18  1  0  0  0  0
  6 17  1  0  0  0  0
  7 20  1  0  0  0  0
  7  6  1  0  0  0  0
  8 12  1  0  0  0  0
  8  7  1  0  0  0  0
  9  8  1  0  0  0  0
 10  9  1  0  0  0  0
 10 11  2  0  0  0  0
 11 12  1  0  0  0  0
 13  1  1  0  0  0  0
 16  5  1  0  0  0  0
 19  7  1  0  0  0  0
 21  9  1  0  0  0  0
 22 10  1  0  0  0  0
M  RAD  2   9   2  12   2
M  END
