315908849.xyz
 OpenBabel08132112113D
CS(=O)CCCn1c(S)nc2c1cccc2F
 30 31  0  0  0  0  0  0  0  0999 V2000
   -4.8748   -4.1588    1.5198 C   0  0  0  0  0  0  0  0  0  0  0  0
   -3.1079   -4.1872    2.0215 S   0  0  1  0  0  0  0  0  0  0  0  0
   -2.3102   -4.2273    0.7376 O   0  0  0  0  0  0  0  0  0  0  0  0
   -2.9987   -2.4356    2.6407 C   0  0  0  0  0  0  0  0  0  0  0  0
   -2.9826   -1.4420    1.4908 C   0  0  0  0  0  0  0  0  0  0  0  0
   -2.5349   -0.0341    1.8992 C   0  0  0  0  0  0  0  0  0  0  0  0
   -1.1960    0.0105    2.4594 N   0  0  0  0  0  0  0  0  0  0  0  0
    0.0000    0.0000    1.7611 C   0  0  0  0  0  0  0  0  0  0  0  0
    0.0000    0.0000    0.0000 S   0  0  0  0  0  0  0  0  0  0  0  0
    1.0604   -0.0000    2.5271 N   0  0  0  0  0  0  0  0  0  0  0  0
    0.5648    0.0039    3.8172 C   0  0  0  0  0  0  0  0  0  0  0  0
   -0.8546    0.0058    3.8076 C   0  0  0  0  0  0  0  0  0  0  0  0
   -1.6261    0.0041    4.9742 C   0  0  0  0  0  0  0  0  0  0  0  0
   -0.9316    0.0044    6.1848 C   0  0  0  0  0  0  0  0  0  0  0  0
    0.4761    0.0049    6.2308 C   0  0  0  0  0  0  0  0  0  0  0  0
    1.2204    0.0053    5.0570 C   0  0  0  0  0  0  0  0  0  0  0  0
    2.5547    0.0053    5.1085 F   0  0  0  0  0  0  0  0  0  0  0  0
   -5.0627   -5.1315    1.0455 H   0  0  0  0  0  0  0  0  0  0  0  0
   -5.0351   -3.3570    0.7861 H   0  0  0  0  0  0  0  0  0  0  0  0
   -5.5192   -4.0352    2.4027 H   0  0  0  0  0  0  0  0  0  0  0  0
   -2.0465   -2.4156    3.1918 H   0  0  0  0  0  0  0  0  0  0  0  0
   -3.8148   -2.2790    3.3642 H   0  0  0  0  0  0  0  0  0  0  0  0
   -2.3099   -1.8413    0.7140 H   0  0  0  0  0  0  0  0  0  0  0  0
   -3.9814   -1.3574    1.0326 H   0  0  0  0  0  0  0  0  0  0  0  0
   -3.2179    0.3994    2.6453 H   0  0  0  0  0  0  0  0  0  0  0  0
   -2.5630    0.6312    1.0214 H   0  0  0  0  0  0  0  0  0  0  0  0
    1.3487    0.0507   -0.0587 H   0  0  0  0  0  0  0  0  0  0  0  0
   -2.7167    0.0004    4.9491 H   0  0  0  0  0  0  0  0  0  0  0  0
   -1.4897    0.0035    7.1235 H   0  0  0  0  0  0  0  0  0  0  0  0
    1.0070    0.0043    7.1841 H   0  0  0  0  0  0  0  0  0  0  0  0
  1  2  1  0  0  0  0
  1 20  1  0  0  0  0
  2  3  2  6  0  0  0
  2  4  1  0  0  0  0
  4 21  1  0  0  0  0
  4 22  1  0  0  0  0
  5  6  1  0  0  0  0
  5  4  1  0  0  0  0
  6  7  1  0  0  0  0
  6 25  1  0  0  0  0
  7 12  1  0  0  0  0
  8  7  1  0  0  0  0
  8 10  2  0  0  0  0
  9  8  1  0  0  0  0
 10 11  2  0  0  0  0
 11 16  1  0  0  0  0
 12 11  1  0  0  0  0
 12 13  2  0  0  0  0
 13 14  1  0  0  0  0
 14 15  1  0  0  0  0
 14 29  1  0  0  0  0
 15 30  1  0  0  0  0
 16 17  1  0  0  0  0
 16 15  2  0  0  0  0
 18  1  1  0  0  0  0
 19  1  1  0  0  0  0
 23  5  1  0  0  0  0
 24  5  1  0  0  0  0
 26  6  1  0  0  0  0
 27  9  1  0  0  0  0
 28 13  1  0  0  0  0
M  RAD  1  14   2
M  END
