315940080.xyz
 OpenBabel08132112113D
CC1(CCOCC1)n1c(S)nc2c1cc(C)cc2
 36 38  0  0  1  0  0  0  0  0999 V2000
   -3.0945   -1.4295    2.7870 C   0  0  0  0  0  0  0  0  0  0  0  0
   -2.5827   -0.0497    2.3476 C   0  0  0  0  0  0  0  0  0  0  0  0
   -2.9269    0.1497    0.8592 C   0  0  0  0  0  0  0  0  0  0  0  0
   -2.9376    1.6185    0.4548 C   0  0  0  0  0  0  0  0  0  0  0  0
   -3.9640    2.3359    1.1268 O   0  0  0  0  0  0  0  0  0  0  0  0
   -4.4079    1.7560    2.3365 C   0  0  0  0  0  0  0  0  0  0  0  0
   -3.2777    1.1112    3.1313 C   0  0  0  0  0  0  0  0  0  0  0  0
   -1.1155    0.0115    2.6137 N   0  0  0  0  0  0  0  0  0  0  0  0
    0.0000   -0.0000    1.7736 C   0  0  0  0  0  0  0  0  0  0  0  0
    0.0000    0.0000    0.0000 S   0  0  0  0  0  0  0  0  0  0  0  0
    1.1421    0.0000    2.4134 N   0  0  0  0  0  0  0  0  0  0  0  0
    0.8210   -0.0016    3.7543 C   0  0  0  0  0  0  0  0  0  0  0  0
   -0.5847   -0.0011    3.9139 C   0  0  2  0  0  0  0  0  0  0  0  0
   -1.1655   -0.0194    5.1903 C   0  0  0  0  0  0  0  0  0  0  0  0
   -0.3254   -0.0312    6.3090 C   0  0  0  0  0  0  0  0  0  0  0  0
   -0.9065   -0.0489    7.7017 C   0  0  0  0  0  0  0  0  0  0  0  0
    1.0791   -0.0239    6.1365 C   0  0  0  0  0  0  0  0  0  0  0  0
    1.6626   -0.0104    4.8753 C   0  0  0  0  0  0  0  0  0  0  0  0
   -4.1914   -1.4686    2.7031 H   0  0  0  0  0  0  0  0  0  0  0  0
   -2.6706   -2.2148    2.1425 H   0  0  0  0  0  0  0  0  0  0  0  0
   -2.8192   -1.6549    3.8256 H   0  0  0  0  0  0  0  0  0  0  0  0
   -2.2844   -0.4573    0.2104 H   0  0  0  0  0  0  0  0  0  0  0  0
   -3.9386   -0.2547    0.7057 H   0  0  0  0  0  0  0  0  0  0  0  0
   -1.9538    2.0791    0.6616 H   0  0  0  0  0  0  0  0  0  0  0  0
   -3.1173    1.7171   -0.6277 H   0  0  0  0  0  0  0  0  0  0  0  0
   -5.2111    1.0138    2.1476 H   0  0  0  0  0  0  0  0  0  0  0  0
   -4.8619    2.5672    2.9266 H   0  0  0  0  0  0  0  0  0  0  0  0
   -3.6801    0.7523    4.0891 H   0  0  0  0  0  0  0  0  0  0  0  0
   -2.5300    1.8833    3.3634 H   0  0  0  0  0  0  0  0  0  0  0  0
    1.3522    0.0231   -0.0113 H   0  0  0  0  0  0  0  0  0  0  0  0
   -2.2431   -0.0257    5.3392 H   0  0  0  0  0  0  0  0  0  0  0  0
   -0.5975    0.8408    8.2759 H   0  0  0  0  0  0  0  0  0  0  0  0
   -0.5627   -0.9304    8.2683 H   0  0  0  0  0  0  0  0  0  0  0  0
   -2.0061   -0.0700    7.6829 H   0  0  0  0  0  0  0  0  0  0  0  0
    1.7172   -0.0320    7.0243 H   0  0  0  0  0  0  0  0  0  0  0  0
    2.7459   -0.0092    4.7423 H   0  0  0  0  0  0  0  0  0  0  0  0
  1 21  1  0  0  0  0
  2  8  1  0  0  0  0
  2  1  1  0  0  0  0
  2  7  1  0  0  0  0
  3  2  1  0  0  0  0
  4 24  1  0  0  0  0
  4  3  1  0  0  0  0
  4  5  1  0  0  0  0
  5  6  1  0  0  0  0
  6 27  1  0  0  0  0
  6  7  1  0  0  0  0
  7 29  1  0  0  0  0
  7 28  1  0  0  0  0
  8 13  1  0  0  0  0
  9 11  2  0  0  0  0
  9  8  1  0  0  0  0
 10  9  1  0  0  0  0
 11 12  2  0  0  0  0
 12 18  1  0  0  0  0
 13 12  1  6  0  0  0
 13 14  1  0  0  0  0
 14 31  1  0  0  0  0
 14 15  2  0  0  0  0
 15 16  1  0  0  0  0
 16 33  1  0  0  0  0
 16 32  1  0  0  0  0
 17 15  1  0  0  0  0
 17 35  1  0  0  0  0
 18 17  2  0  0  0  0
 19  1  1  0  0  0  0
 20  1  1  0  0  0  0
 22  3  1  0  0  0  0
 23  3  1  0  0  0  0
 25  4  1  0  0  0  0
 26  6  1  0  0  0  0
 30 10  1  0  0  0  0
 34 16  1  0  0  0  0
 36 18  1  0  0  0  0
M  RAD  1  13   2
M  END
