315964164.xyz
 OpenBabel08132112113D
CSC(CCn1c(S)nc2c1cc(C)cc2)C
 35 36  0  0  1  0  0  0  0  0999 V2000
    4.6057   -2.2900    4.9168 C   0  0  0  0  0  0  0  0  0  0  0  0
    5.2489   -1.1052    3.6922 S   0  0  0  0  0  0  0  0  0  0  0  0
    4.5363   -1.7554    2.1135 C   0  0  2  0  0  0  0  0  0  0  0  0
    3.0124   -1.6046    2.0609 C   0  0  0  0  0  0  0  0  0  0  0  0
    2.5393   -0.1465    2.0561 C   0  0  0  0  0  0  0  0  0  0  0  0
    1.1736   -0.0000    2.5140 N   0  0  0  0  0  0  0  0  0  0  0  0
    0.0000    0.0000    1.7697 C   0  0  0  0  0  0  0  0  0  0  0  0
    0.0000    0.0000    0.0000 S   0  0  0  0  0  0  0  0  0  0  0  0
   -1.0800    0.0964    2.5035 N   0  0  0  0  0  0  0  0  0  0  0  0
   -0.6298    0.1461    3.8110 C   0  0  0  0  0  0  0  0  0  0  0  0
    0.7850    0.0706    3.8397 C   0  0  0  0  0  0  0  0  0  0  0  0
    1.5216    0.0771    5.0303 C   0  0  0  0  0  0  0  0  0  0  0  0
    0.8105    0.1667    6.2302 C   0  0  1  0  0  0  0  0  0  0  0  0
    1.5359    0.1870    7.5530 C   0  0  0  0  0  0  0  0  0  0  0  0
   -0.6066    0.2450    6.2060 C   0  0  0  0  0  0  0  0  0  0  0  0
   -1.3350    0.2383    5.0213 C   0  0  0  0  0  0  0  0  0  0  0  0
    4.9895   -3.1815    1.8117 C   0  0  0  0  0  0  0  0  0  0  0  0
    3.5063   -2.2979    4.9490 H   0  0  0  0  0  0  0  0  0  0  0  0
    4.9758   -1.9423    5.8918 H   0  0  0  0  0  0  0  0  0  0  0  0
    4.9848   -3.3072    4.7429 H   0  0  0  0  0  0  0  0  0  0  0  0
    4.9910   -1.0751    1.3725 H   0  0  0  0  0  0  0  0  0  0  0  0
    2.6313   -2.1222    1.1628 H   0  0  0  0  0  0  0  0  0  0  0  0
    2.5624   -2.1252    2.9215 H   0  0  0  0  0  0  0  0  0  0  0  0
    2.6102    0.2892    1.0487 H   0  0  0  0  0  0  0  0  0  0  0  0
    3.1807    0.4458    2.7251 H   0  0  0  0  0  0  0  0  0  0  0  0
    0.6689   -1.1687   -0.1560 H   0  0  0  0  0  0  0  0  0  0  0  0
    2.6124    0.0242    5.0245 H   0  0  0  0  0  0  0  0  0  0  0  0
    1.1924   -0.6286    8.2109 H   0  0  0  0  0  0  0  0  0  0  0  0
    2.6224    0.0796    7.4198 H   0  0  0  0  0  0  0  0  0  0  0  0
    1.3554    1.1314    8.0936 H   0  0  0  0  0  0  0  0  0  0  0  0
   -1.1391    0.3133    7.1586 H   0  0  0  0  0  0  0  0  0  0  0  0
   -2.4249    0.2994    5.0189 H   0  0  0  0  0  0  0  0  0  0  0  0
    6.0830   -3.2726    1.8810 H   0  0  0  0  0  0  0  0  0  0  0  0
    4.5384   -3.9014    2.5125 H   0  0  0  0  0  0  0  0  0  0  0  0
    4.6777   -3.4752    0.7958 H   0  0  0  0  0  0  0  0  0  0  0  0
  1 18  1  0  0  0  0
  1 19  1  0  0  0  0
  2  1  1  0  0  0  0
  3 21  1  6  0  0  0
  3  2  1  0  0  0  0
  4  3  1  0  0  0  0
  4 23  1  0  0  0  0
  5  4  1  0  0  0  0
  5  6  1  0  0  0  0
  5 25  1  0  0  0  0
  6 11  1  0  0  0  0
  7  9  2  0  0  0  0
  7  6  1  0  0  0  0
  8  7  1  0  0  0  0
  9 10  2  0  0  0  0
 10 11  1  0  0  0  0
 10 16  1  0  0  0  0
 11 12  2  0  0  0  0
 12 13  1  0  0  0  0
 13 14  1  6  0  0  0
 14 30  1  0  0  0  0
 14 28  1  0  0  0  0
 15 13  1  0  0  0  0
 15 31  1  0  0  0  0
 16 15  2  0  0  0  0
 17 33  1  0  0  0  0
 17  3  1  0  0  0  0
 17 34  1  0  0  0  0
 20  1  1  0  0  0  0
 22  4  1  0  0  0  0
 24  5  1  0  0  0  0
 26  8  1  0  0  0  0
 27 12  1  0  0  0  0
 29 14  1  0  0  0  0
 32 16  1  0  0  0  0
 35 17  1  0  0  0  0
M  RAD  1  13   2
M  END
