315933117.xyz
 OpenBabel08132112113D
NC(=O)CCCn1c(S)nc2c1cccc2Cl
 29 30  0  0  0  0  0  0  0  0999 V2000
    3.0373   -4.8999    3.0487 N   0  0  0  0  0  0  0  0  0  0  0  0
    3.4863   -3.8545    2.2976 C   0  0  0  0  0  0  0  0  0  0  0  0
    4.2975   -3.9902    1.4001 O   0  0  0  0  0  0  0  0  0  0  0  0
    2.9197   -2.4914    2.6903 C   0  0  0  0  0  0  0  0  0  0  0  0
    2.9423   -1.5110    1.5223 C   0  0  0  0  0  0  0  0  0  0  0  0
    2.5339   -0.0888    1.9066 C   0  0  0  0  0  0  0  0  0  0  0  0
    1.1911    0.0000    2.4631 N   0  0  0  0  0  0  0  0  0  0  0  0
   -0.0000    0.0000    1.7619 C   0  0  0  0  0  0  0  0  0  0  0  0
    0.0000    0.0000    0.0000 S   0  0  0  0  0  0  0  0  0  0  0  0
   -1.0656    0.0085    2.5229 N   0  0  0  0  0  0  0  0  0  0  0  0
   -0.5796    0.0083    3.8148 C   0  0  0  0  0  0  0  0  0  0  0  0
    0.8414   -0.0023    3.8087 C   0  0  0  0  0  0  0  0  0  0  0  0
    1.6050   -0.0075    4.9788 C   0  0  0  0  0  0  0  0  0  0  0  0
    0.9045   -0.0007    6.1863 C   0  0  0  0  0  0  0  0  0  0  0  0
   -0.5024    0.0093    6.2268 C   0  0  0  0  0  0  0  0  0  0  0  0
   -1.2494    0.0145    5.0494 C   0  0  0  0  0  0  0  0  0  0  0  0
   -2.9885    0.0267    5.0951 Cl  0  0  0  0  0  0  0  0  0  0  0  0
    2.3507   -4.7856    3.7816 H   0  0  0  0  0  0  0  0  0  0  0  0
    3.4067   -5.8240    2.8586 H   0  0  0  0  0  0  0  0  0  0  0  0
    3.5425   -2.1103    3.5201 H   0  0  0  0  0  0  0  0  0  0  0  0
    1.9019   -2.5994    3.0983 H   0  0  0  0  0  0  0  0  0  0  0  0
    3.9555   -1.4918    1.0930 H   0  0  0  0  0  0  0  0  0  0  0  0
    2.2794   -1.8766    0.7212 H   0  0  0  0  0  0  0  0  0  0  0  0
    2.5824    0.5717    1.0265 H   0  0  0  0  0  0  0  0  0  0  0  0
    3.2252    0.3295    2.6539 H   0  0  0  0  0  0  0  0  0  0  0  0
   -1.3469    0.0906   -0.0568 H   0  0  0  0  0  0  0  0  0  0  0  0
    2.6956   -0.0160    4.9600 H   0  0  0  0  0  0  0  0  0  0  0  0
    1.4585   -0.0024    7.1276 H   0  0  0  0  0  0  0  0  0  0  0  0
   -1.0259    0.0141    7.1836 H   0  0  0  0  0  0  0  0  0  0  0  0
  1 18  1  0  0  0  0
  2  4  1  0  0  0  0
  2  1  1  0  0  0  0
  3  2  2  0  0  0  0
  4 21  1  0  0  0  0
  4 20  1  0  0  0  0
  5  6  1  0  0  0  0
  5  4  1  0  0  0  0
  6  7  1  0  0  0  0
  6 25  1  0  0  0  0
  7 12  1  0  0  0  0
  8  7  1  0  0  0  0
  8 10  2  0  0  0  0
  9  8  1  0  0  0  0
 10 11  2  0  0  0  0
 11 16  1  0  0  0  0
 12 11  1  0  0  0  0
 12 13  2  0  0  0  0
 13 14  1  0  0  0  0
 14 15  1  0  0  0  0
 14 28  1  0  0  0  0
 15 29  1  0  0  0  0
 16 17  1  0  0  0  0
 16 15  2  0  0  0  0
 19  1  1  0  0  0  0
 22  5  1  0  0  0  0
 23  5  1  0  0  0  0
 24  6  1  0  0  0  0
 26  9  1  0  0  0  0
 27 13  1  0  0  0  0
M  RAD  1  14   2
M  END
