315920552.xyz
 OpenBabel08132112113D
CC(OCCn1c(S)nc2c1cc(Cl)cc2)C
 32 33  0  0  1  0  0  0  0  0999 V2000
    4.4558   -3.5148   -0.0684 C   0  0  0  0  0  0  0  0  0  0  0  0
    5.0071   -2.6746    1.0825 C   0  0  0  0  0  0  0  0  0  0  0  0
    4.3167   -1.4347    1.2071 O   0  0  0  0  0  0  0  0  0  0  0  0
    3.0202   -1.5016    1.7301 C   0  0  0  0  0  0  0  0  0  0  0  0
    2.5357   -0.0652    1.9093 C   0  0  0  0  0  0  0  0  0  0  0  0
    1.1978    0.0000    2.4583 N   0  0  0  0  0  0  0  0  0  0  0  0
    0.0000    0.0000    1.7628 C   0  0  0  0  0  0  0  0  0  0  0  0
    0.0000    0.0000    0.0000 S   0  0  0  0  0  0  0  0  0  0  0  0
   -1.0591   -0.0031    2.5296 N   0  0  0  0  0  0  0  0  0  0  0  0
   -0.5660   -0.0165    3.8249 C   0  0  0  0  0  0  0  0  0  0  0  0
    0.8537   -0.0243    3.8033 C   0  0  0  0  0  0  0  0  0  0  0  0
    1.6292   -0.0453    4.9633 C   0  0  0  0  0  0  0  0  0  0  0  0
    0.9270   -0.0540    6.1700 C   0  0  2  0  0  0  0  0  0  0  0  0
    1.8308   -0.0828    7.6700 Cl  0  0  0  0  0  0  0  0  0  0  0  0
   -0.4806   -0.0431    6.2254 C   0  0  0  0  0  0  0  0  0  0  0  0
   -1.2369   -0.0239    5.0546 C   0  0  0  0  0  0  0  0  0  0  0  0
    6.4778   -2.3323    0.8984 C   0  0  0  0  0  0  0  0  0  0  0  0
    5.0198   -4.4555   -0.1637 H   0  0  0  0  0  0  0  0  0  0  0  0
    3.3978   -3.7773    0.0834 H   0  0  0  0  0  0  0  0  0  0  0  0
    4.5409   -2.9592   -1.0160 H   0  0  0  0  0  0  0  0  0  0  0  0
    4.8836   -3.2404    2.0299 H   0  0  0  0  0  0  0  0  0  0  0  0
    3.0045   -2.0269    2.7074 H   0  0  0  0  0  0  0  0  0  0  0  0
    2.3200   -2.0373    1.0600 H   0  0  0  0  0  0  0  0  0  0  0  0
    2.5552    0.4531    0.9389 H   0  0  0  0  0  0  0  0  0  0  0  0
    3.2226    0.4767    2.5760 H   0  0  0  0  0  0  0  0  0  0  0  0
   -1.3489    0.0465   -0.0573 H   0  0  0  0  0  0  0  0  0  0  0  0
    2.7191   -0.0575    4.9501 H   0  0  0  0  0  0  0  0  0  0  0  0
   -0.9679   -0.0514    7.2010 H   0  0  0  0  0  0  0  0  0  0  0  0
   -2.3275   -0.0158    5.0871 H   0  0  0  0  0  0  0  0  0  0  0  0
    7.0876   -3.2462    0.8352 H   0  0  0  0  0  0  0  0  0  0  0  0
    6.6184   -1.7533   -0.0281 H   0  0  0  0  0  0  0  0  0  0  0  0
    6.8380   -1.7239    1.7411 H   0  0  0  0  0  0  0  0  0  0  0  0
  1 19  1  0  0  0  0
  1  2  1  0  0  0  0
  2  3  1  0  0  0  0
  2 21  1  0  0  0  0
  3  4  1  0  0  0  0
  4  5  1  0  0  0  0
  4 22  1  0  0  0  0
  5  6  1  0  0  0  0
  5 25  1  0  0  0  0
  6 11  1  0  0  0  0
  7  6  1  0  0  0  0
  7  9  2  0  0  0  0
  8  7  1  0  0  0  0
  9 10  2  0  0  0  0
 10 16  1  0  0  0  0
 11 10  1  0  0  0  0
 11 12  2  0  0  0  0
 12 13  1  0  0  0  0
 13 15  1  0  0  0  0
 13 14  1  6  0  0  0
 15 28  1  0  0  0  0
 16 29  1  0  0  0  0
 16 15  2  0  0  0  0
 17  2  1  0  0  0  0
 17 32  1  0  0  0  0
 18  1  1  0  0  0  0
 20  1  1  0  0  0  0
 23  4  1  0  0  0  0
 24  5  1  0  0  0  0
 26  8  1  0  0  0  0
 27 12  1  0  0  0  0
 30 17  1  0  0  0  0
 31 17  1  0  0  0  0
M  RAD  1  13   2
M  END
