315923663.xyz
 OpenBabel08132112113D
CSC(Cn1c(S)nc2c1cccc2OC)C
 33 34  0  0  1  0  0  0  0  0999 V2000
   -3.0731   -4.1220    1.9294 C   0  0  0  0  0  0  0  0  0  0  0  0
   -3.0528   -2.5382    2.8223 S   0  0  0  0  0  0  0  0  0  0  0  0
   -2.9880   -1.3766    1.3968 C   0  0  2  0  0  0  0  0  0  0  0  0
   -2.5227   -0.0022    1.8996 C   0  0  0  0  0  0  0  0  0  0  0  0
   -1.1914    0.0146    2.4650 N   0  0  0  0  0  0  0  0  0  0  0  0
    0.0000   -0.0000    1.7669 C   0  0  0  0  0  0  0  0  0  0  0  0
    0.0000    0.0000    0.0000 S   0  0  0  0  0  0  0  0  0  0  0  0
    1.0578    0.0000    2.5299 N   0  0  0  0  0  0  0  0  0  0  0  0
    0.5702    0.0110    3.8346 C   0  0  0  0  0  0  0  0  0  0  0  0
   -0.8508    0.0113    3.8154 C   0  0  0  0  0  0  0  0  0  0  0  0
   -1.6415    0.0144    4.9655 C   0  0  0  0  0  0  0  0  0  0  0  0
   -0.9542    0.0270    6.1802 C   0  0  0  0  0  0  0  0  0  0  0  0
    0.4469    0.0316    6.2379 C   0  0  0  0  0  0  0  0  0  0  0  0
    1.2394    0.0217    5.0807 C   0  0  0  0  0  0  0  0  0  0  0  0
    2.5776    0.0235    5.2673 O   0  0  0  0  0  0  0  0  0  0  0  0
    3.4609   -0.0011    4.1602 C   0  0  0  0  0  0  0  0  0  0  0  0
   -4.3248   -1.2549    0.6708 C   0  0  0  0  0  0  0  0  0  0  0  0
   -2.1761   -4.2306    1.3005 H   0  0  0  0  0  0  0  0  0  0  0  0
   -3.9762   -4.2401    1.3120 H   0  0  0  0  0  0  0  0  0  0  0  0
   -3.0662   -4.9122    2.6932 H   0  0  0  0  0  0  0  0  0  0  0  0
   -2.2213   -1.7647    0.7056 H   0  0  0  0  0  0  0  0  0  0  0  0
   -3.2210    0.3810    2.6591 H   0  0  0  0  0  0  0  0  0  0  0  0
   -2.5537    0.7076    1.0560 H   0  0  0  0  0  0  0  0  0  0  0  0
    1.3452    0.1031   -0.0625 H   0  0  0  0  0  0  0  0  0  0  0  0
   -2.7306   -0.0123    4.9253 H   0  0  0  0  0  0  0  0  0  0  0  0
   -1.5195    0.0269    7.1151 H   0  0  0  0  0  0  0  0  0  0  0  0
    0.9649    0.0387    7.1983 H   0  0  0  0  0  0  0  0  0  0  0  0
    3.3140   -0.9003    3.5423 H   0  0  0  0  0  0  0  0  0  0  0  0
    4.4747   -0.0014    4.5842 H   0  0  0  0  0  0  0  0  0  0  0  0
    3.3270    0.8789    3.5125 H   0  0  0  0  0  0  0  0  0  0  0  0
   -5.0980   -0.8522    1.3437 H   0  0  0  0  0  0  0  0  0  0  0  0
   -4.6723   -2.2320    0.3061 H   0  0  0  0  0  0  0  0  0  0  0  0
   -4.2364   -0.5856   -0.2020 H   0  0  0  0  0  0  0  0  0  0  0  0
  1 20  1  0  0  0  0
  1  2  1  0  0  0  0
  3 21  1  6  0  0  0
  3  4  1  0  0  0  0
  3  2  1  0  0  0  0
  4  5  1  0  0  0  0
  4 22  1  0  0  0  0
  5 10  1  0  0  0  0
  6  5  1  0  0  0  0
  6  8  2  0  0  0  0
  7  6  1  0  0  0  0
  8  9  2  0  0  0  0
  9 14  1  0  0  0  0
 10  9  1  0  0  0  0
 10 11  2  0  0  0  0
 11 12  1  0  0  0  0
 12 13  1  0  0  0  0
 12 26  1  0  0  0  0
 13 27  1  0  0  0  0
 14 15  1  0  0  0  0
 14 13  2  0  0  0  0
 16 29  1  0  0  0  0
 16 15  1  0  0  0  0
 17 31  1  0  0  0  0
 17  3  1  0  0  0  0
 18  1  1  0  0  0  0
 19  1  1  0  0  0  0
 23  4  1  0  0  0  0
 24  7  1  0  0  0  0
 25 11  1  0  0  0  0
 28 16  1  0  0  0  0
 30 16  1  0  0  0  0
 32 17  1  0  0  0  0
 33 17  1  0  0  0  0
M  RAD  1  12   2
M  END
