316212169.xyz
 OpenBabel08132112113D
Sc1ccc(c(c1)C(F)(F)F)O
 17 17  0  0  0  0  0  0  0  0999 V2000
    0.0000    0.0000    0.0000 S   0  0  0  0  0  0  0  0  0  0  0  0
    0.0000    0.0000    1.7804 C   0  0  0  0  0  0  0  0  0  0  0  0
    1.2356    0.0000    2.4434 C   0  0  0  0  0  0  0  0  0  0  0  0
    1.2923    0.0139    3.8352 C   0  0  0  0  0  0  0  0  0  0  0  0
    0.1213    0.0226    4.6026 C   0  0  0  0  0  0  0  0  0  0  0  0
   -1.1219    0.0201    3.9428 C   0  0  0  0  0  0  0  0  0  0  0  0
   -1.1717    0.0125    2.5474 C   0  0  0  0  0  0  0  0  0  0  0  0
   -2.3978    0.0286    4.7485 C   0  0  0  0  0  0  0  0  0  0  0  0
   -2.4939   -1.0479    5.5461 F   0  0  0  0  0  0  0  0  0  0  0  0
   -3.4843    0.0260    3.9507 F   0  0  0  0  0  0  0  0  0  0  0  0
   -2.4886    1.1156    5.5321 F   0  0  0  0  0  0  0  0  0  0  0  0
    0.1328    0.0321    5.9554 O   0  0  0  0  0  0  0  0  0  0  0  0
   -1.3347   -0.1381   -0.1558 H   0  0  0  0  0  0  0  0  0  0  0  0
    2.1651   -0.0131    1.8695 H   0  0  0  0  0  0  0  0  0  0  0  0
    2.2632    0.0140    4.3394 H   0  0  0  0  0  0  0  0  0  0  0  0
   -2.1487    0.0170    2.0640 H   0  0  0  0  0  0  0  0  0  0  0  0
    1.0443    0.0333    6.2747 H   0  0  0  0  0  0  0  0  0  0  0  0
  1  2  1  0  0  0  0
  2  3  2  0  0  0  0
  2  7  1  0  0  0  0
  3  4  1  0  0  0  0
  4 15  1  0  0  0  0
  4  5  2  0  0  0  0
  5 12  1  0  0  0  0
  6  5  1  0  0  0  0
  6  8  1  0  0  0  0
  7  6  2  0  0  0  0
  8 11  1  0  0  0  0
  8  9  1  0  0  0  0
 10  8  1  0  0  0  0
 12 17  1  0  0  0  0
 13  1  1  0  0  0  0
 14  3  1  0  0  0  0
 16  7  1  0  0  0  0
M  END
