316274889.xyz
 OpenBabel08132112113D
COc1ccc2c(c1)c1nc(S)ncc1CO2
 27 29  0  0  1  0  0  0  0  0999 V2000
    6.2849   -0.3116    2.4450 C   0  0  0  0  0  0  0  0  0  0  0  0
    6.1961   -0.0460    3.8261 O   0  0  0  0  0  0  0  0  0  0  0  0
    4.9640    0.0579    4.3860 C   0  0  0  0  0  0  0  0  0  0  0  0
    4.9326    0.3437    5.7667 C   0  0  0  0  0  0  0  0  0  0  0  0
    3.7257    0.4666    6.4419 C   0  0  0  0  0  0  0  0  0  0  0  0
    2.5171    0.3000    5.7528 C   0  0  0  0  0  0  0  0  0  0  0  0
    2.5380    0.0275    4.3719 C   0  0  0  0  0  0  0  0  0  0  0  0
    3.7638   -0.0914    3.6922 C   0  0  0  0  0  0  0  0  0  0  0  0
    1.2553   -0.0292    3.6681 C   0  0  0  0  0  0  0  0  0  0  0  0
    1.2102   -0.0000    2.3322 N   0  0  0  0  0  0  0  0  0  0  0  0
   -0.0000    0.0000    1.7711 C   0  0  0  0  0  0  0  0  0  0  0  0
    0.0000    0.0000    0.0000 S   0  0  0  0  0  0  0  0  0  0  0  0
   -1.1749    0.0075    2.4082 N   0  0  0  0  0  0  0  0  0  0  0  0
   -1.1217   -0.0267    3.7430 C   0  0  0  0  0  0  0  0  0  0  0  0
    0.0791   -0.0700    4.4440 C   0  0  1  0  0  0  0  0  0  0  0  0
    0.2191   -0.2236    5.9323 C   0  0  0  0  0  0  0  0  0  0  0  0
    1.3515    0.4731    6.4389 O   0  0  0  0  0  0  0  0  0  0  0  0
    5.8161   -1.2773    2.1829 H   0  0  0  0  0  0  0  0  0  0  0  0
    5.8095    0.4841    1.8437 H   0  0  0  0  0  0  0  0  0  0  0  0
    7.3545   -0.3546    2.2010 H   0  0  0  0  0  0  0  0  0  0  0  0
    5.8834    0.4614    6.2897 H   0  0  0  0  0  0  0  0  0  0  0  0
    3.6943    0.6910    7.5093 H   0  0  0  0  0  0  0  0  0  0  0  0
    3.7217   -0.2838    2.6216 H   0  0  0  0  0  0  0  0  0  0  0  0
   -1.3481   -0.0041   -0.0992 H   0  0  0  0  0  0  0  0  0  0  0  0
   -2.0822   -0.0249    4.2735 H   0  0  0  0  0  0  0  0  0  0  0  0
    0.3180   -1.2985    6.1910 H   0  0  0  0  0  0  0  0  0  0  0  0
   -0.6564    0.1721    6.4661 H   0  0  0  0  0  0  0  0  0  0  0  0
  1  2  1  0  0  0  0
  2  3  1  0  0  0  0
  3  4  2  0  0  0  0
  4 21  1  0  0  0  0
  4  5  1  0  0  0  0
  5 22  1  0  0  0  0
  6 17  1  0  0  0  0
  6  5  2  0  0  0  0
  7  6  1  0  0  0  0
  8  7  2  0  0  0  0
  8  3  1  0  0  0  0
  9  7  1  0  0  0  0
 10  9  2  0  0  0  0
 11 10  2  0  0  0  0
 11 13  2  0  0  0  0
 12 11  1  0  0  0  0
 13 14  2  0  0  0  0
 14 25  1  0  0  0  0
 14 15  1  0  0  0  0
 15  9  1  6  0  0  0
 15 16  1  0  0  0  0
 16 26  1  0  0  0  0
 16 17  1  0  0  0  0
 16 27  1  0  0  0  0
 18  1  1  0  0  0  0
 19  1  1  0  0  0  0
 20  1  1  0  0  0  0
 23  8  1  0  0  0  0
 24 12  1  0  0  0  0
M  RAD  1  15   2
M  END
