316241078.xyz
 OpenBabel08132112113D
CCc1cccc(c1CCl)S
 22 22  0  0  0  0  0  0  0  0999 V2000
   -2.9412    1.3805    4.9835 C   0  0  0  0  0  0  0  0  0  0  0  0
   -2.3379   -0.0252    4.8480 C   0  0  0  0  0  0  0  0  0  0  0  0
   -1.1093   -0.0589    3.9634 C   0  0  0  0  0  0  0  0  0  0  0  0
    0.1541   -0.0621    4.5709 C   0  0  0  0  0  0  0  0  0  0  0  0
    1.3231   -0.0438    3.8114 C   0  0  0  0  0  0  0  0  0  0  0  0
    1.2490   -0.0000    2.4208 C   0  0  0  0  0  0  0  0  0  0  0  0
   -0.0000    0.0000    1.7882 C   0  0  0  0  0  0  0  0  0  0  0  0
   -1.1915   -0.0509    2.5508 C   0  0  0  0  0  0  0  0  0  0  0  0
   -2.5102   -0.1195    1.8503 C   0  0  0  0  0  0  0  0  0  0  0  0
   -3.0682    1.5220    1.2320 Cl  0  0  0  0  0  0  0  0  0  0  0  0
    0.0000    0.0000    0.0000 S   0  0  0  0  0  0  0  0  0  0  0  0
   -2.2023    2.0793    5.4062 H   0  0  0  0  0  0  0  0  0  0  0  0
   -3.2522    1.7795    4.0069 H   0  0  0  0  0  0  0  0  0  0  0  0
   -3.8196    1.3684    5.6481 H   0  0  0  0  0  0  0  0  0  0  0  0
   -3.1059   -0.7219    4.4746 H   0  0  0  0  0  0  0  0  0  0  0  0
   -2.0574   -0.3993    5.8453 H   0  0  0  0  0  0  0  0  0  0  0  0
    0.2159   -0.0782    5.6619 H   0  0  0  0  0  0  0  0  0  0  0  0
    2.2980   -0.0466    4.3046 H   0  0  0  0  0  0  0  0  0  0  0  0
    2.1562    0.0496    1.8157 H   0  0  0  0  0  0  0  0  0  0  0  0
   -2.4474   -0.7486    0.9540 H   0  0  0  0  0  0  0  0  0  0  0  0
   -3.3205   -0.4714    2.4936 H   0  0  0  0  0  0  0  0  0  0  0  0
   -1.0177    0.8797   -0.1613 H   0  0  0  0  0  0  0  0  0  0  0  0
  1 12  1  0  0  0  0
  1 14  1  0  0  0  0
  2  1  1  0  0  0  0
  2 16  1  0  0  0  0
  3  4  1  0  0  0  0
  3  2  1  0  0  0  0
  4 17  1  0  0  0  0
  5 18  1  0  0  0  0
  5  4  2  0  0  0  0
  6  5  1  0  0  0  0
  7  6  2  0  0  0  0
  7  8  1  0  0  0  0
  8  3  2  0  0  0  0
  9 21  1  0  0  0  0
  9  8  1  0  0  0  0
 10  9  1  0  0  0  0
 11  7  1  0  0  0  0
 13  1  1  0  0  0  0
 15  2  1  0  0  0  0
 19  6  1  0  0  0  0
 20  9  1  0  0  0  0
 22 11  1  0  0  0  0
M  END
