316573961.xyz
 OpenBabel08132112113D
Sc1nnc(n1C1CC1)C1CCCN(C1)C(=O)c1cnc([nH]c1=O)C1CC1
 49 53  0  0  1  0  0  0  0  0999 V2000
    0.0000    0.0000    0.0000 S   0  0  0  0  0  0  0  0  0  0  0  0
    0.0000    0.0000    1.7594 C   0  0  0  0  0  0  0  0  0  0  0  0
    1.0802   -0.0000    2.5029 N   0  0  0  0  0  0  0  0  0  0  0  0
    0.6746    0.0043    3.8114 N   0  0  0  0  0  0  0  0  0  0  0  0
   -0.6403    0.0178    3.8425 C   0  0  0  0  0  0  0  0  0  0  0  0
   -1.1290   -0.0335    2.5543 N   0  0  0  0  0  0  0  0  0  0  0  0
   -2.4860    0.1229    2.1200 C   0  0  0  0  0  0  0  0  0  0  0  0
   -3.0760   -0.8927    1.1814 C   0  0  0  0  0  0  0  0  0  0  0  0
   -3.5311   -0.8444    2.6130 C   0  0  0  0  0  0  0  0  0  0  0  0
   -1.4765    0.2489    5.0697 C   0  0  1  0  0  0  0  0  0  0  0  0
   -0.6581    0.1130    6.3713 C   0  0  0  0  0  0  0  0  0  0  0  0
    0.3416    1.2620    6.5790 C   0  0  0  0  0  0  0  0  0  0  0  0
   -0.2922    2.6370    6.3400 C   0  0  0  0  0  0  0  0  0  0  0  0
   -1.0262    2.6579    5.0765 N   0  0  0  0  0  0  0  0  0  0  0  0
   -2.0920    1.6718    5.0263 C   0  0  0  0  0  0  0  0  0  0  0  0
   -0.5344    3.1201    3.8875 C   0  0  0  0  0  0  0  0  0  0  0  0
   -1.0726    2.8649    2.8118 O   0  0  0  0  0  0  0  0  0  0  0  0
    0.7299    3.9272    3.9009 C   0  0  1  0  0  0  0  0  0  0  0  0
    1.7630    3.5372    3.0783 C   0  0  0  0  0  0  0  0  0  0  0  0
    2.9235    4.2274    2.9161 N   0  0  0  0  0  0  0  0  0  0  0  0
    3.0491    5.3565    3.5644 C   0  0  0  0  0  0  0  0  0  0  0  0
    2.0715    5.8234    4.3857 N   0  0  0  0  0  0  0  0  0  0  0  0
    0.8458    5.1681    4.6454 C   0  0  0  0  0  0  0  0  0  0  0  0
    0.0470    5.6617    5.4249 O   0  0  0  0  0  0  0  0  0  0  0  0
    4.2760    6.1716    3.4237 C   0  0  0  0  0  0  0  0  0  0  0  0
    4.9884    6.1734    2.0815 C   0  0  0  0  0  0  0  0  0  0  0  0
    5.5995    5.4494    3.2314 C   0  0  0  0  0  0  0  0  0  0  0  0
   -0.8015    1.0850   -0.1289 H   0  0  0  0  0  0  0  0  0  0  0  0
   -2.7622    1.1744    1.9942 H   0  0  0  0  0  0  0  0  0  0  0  0
   -3.7400   -0.5210    0.3976 H   0  0  0  0  0  0  0  0  0  0  0  0
   -2.4337   -1.7214    0.8778 H   0  0  0  0  0  0  0  0  0  0  0  0
   -4.5184   -0.4405    2.8502 H   0  0  0  0  0  0  0  0  0  0  0  0
   -3.1983   -1.6528    3.2683 H   0  0  0  0  0  0  0  0  0  0  0  0
   -2.3036   -0.4789    5.0872 H   0  0  0  0  0  0  0  0  0  0  0  0
   -0.1253   -0.8493    6.3815 H   0  0  0  0  0  0  0  0  0  0  0  0
   -1.3791    0.0947    7.2071 H   0  0  0  0  0  0  0  0  0  0  0  0
    0.7463    1.2230    7.6039 H   0  0  0  0  0  0  0  0  0  0  0  0
    1.1780    1.1288    5.8798 H   0  0  0  0  0  0  0  0  0  0  0  0
    0.4599    3.4302    6.3481 H   0  0  0  0  0  0  0  0  0  0  0  0
   -1.0109    2.8836    7.1410 H   0  0  0  0  0  0  0  0  0  0  0  0
   -2.7442    1.8064    5.9043 H   0  0  0  0  0  0  0  0  0  0  0  0
   -2.6880    1.8381    4.1247 H   0  0  0  0  0  0  0  0  0  0  0  0
    1.6806    2.5991    2.5200 H   0  0  0  0  0  0  0  0  0  0  0  0
    2.1935    6.7040    4.8799 H   0  0  0  0  0  0  0  0  0  0  0  0
    4.2872    7.0994    4.0018 H   0  0  0  0  0  0  0  0  0  0  0  0
    4.5201    5.5699    1.3005 H   0  0  0  0  0  0  0  0  0  0  0  0
    5.4259    7.1205    1.7557 H   0  0  0  0  0  0  0  0  0  0  0  0
    6.4735    5.8795    3.7271 H   0  0  0  0  0  0  0  0  0  0  0  0
    5.5427    4.3584    3.2250 H   0  0  0  0  0  0  0  0  0  0  0  0
  1  2  1  0  0  0  0
  2  3  2  0  0  0  0
  2  6  1  0  0  0  0
  3  4  1  0  0  0  0
  4  5  2  0  0  0  0
  5 10  1  0  0  0  0
  6  5  1  0  0  0  0
  7  6  1  0  0  0  0
  7  9  1  0  0  0  0
  8  7  1  0  0  0  0
  8  9  1  0  0  0  0
  9 32  1  0  0  0  0
  9 33  1  0  0  0  0
 10 34  1  1  0  0  0
 10 11  1  0  0  0  0
 11 35  1  0  0  0  0
 11 12  1  0  0  0  0
 11 36  1  0  0  0  0
 12 37  1  0  0  0  0
 13 39  1  0  0  0  0
 13 12  1  0  0  0  0
 13 40  1  0  0  0  0
 14 13  1  0  0  0  0
 15 10  1  0  0  0  0
 15 14  1  0  0  0  0
 15 41  1  0  0  0  0
 16 14  1  0  0  0  0
 17 16  2  0  0  0  0
 18 16  1  6  0  0  0
 18 23  1  0  0  0  0
 19 18  1  0  0  0  0
 20 19  2  0  0  0  0
 20 21  2  0  0  0  0
 21 22  1  0  0  0  0
 22 23  1  0  0  0  0
 22 44  1  0  0  0  0
 23 24  2  0  0  0  0
 25 21  1  0  0  0  0
 25 45  1  0  0  0  0
 26 27  1  0  0  0  0
 26 25  1  0  0  0  0
 27 25  1  0  0  0  0
 27 48  1  0  0  0  0
 28  1  1  0  0  0  0
 29  7  1  0  0  0  0
 30  8  1  0  0  0  0
 31  8  1  0  0  0  0
 38 12  1  0  0  0  0
 42 15  1  0  0  0  0
 43 19  1  0  0  0  0
 46 26  1  0  0  0  0
 47 26  1  0  0  0  0
 49 27  1  0  0  0  0
M  RAD  1  18   2
M  END
