316605958.xyz
 OpenBabel08132112113D
O=C(Nc1cnn(c1Cl)C)NCc1nnc(n1C)S
 31 32  0  0  0  0  0  0  0  0999 V2000
   -0.5148   -0.0003    8.4327 O   0  0  0  0  0  0  0  0  0  0  0  0
   -1.2708   -0.0005    7.4783 C   0  0  0  0  0  0  0  0  0  0  0  0
   -2.6528   -0.0016    7.6112 N   0  0  0  0  0  0  0  0  0  0  0  0
   -3.3218   -0.0027    8.8319 C   0  0  0  0  0  0  0  0  0  0  0  0
   -2.8421   -0.0034   10.1688 C   0  0  0  0  0  0  0  0  0  0  0  0
   -3.8525   -0.0044   11.0384 N   0  0  0  0  0  0  0  0  0  0  0  0
   -4.9794   -0.0044   10.3145 N   0  0  0  0  0  0  0  0  0  0  0  0
   -4.7025   -0.0034    8.9777 C   0  0  0  0  0  0  0  0  0  0  0  0
   -5.9194   -0.0031    7.7544 Cl  0  0  0  0  0  0  0  0  0  0  0  0
   -6.2778   -0.0054   10.9483 C   0  0  0  0  0  0  0  0  0  0  0  0
   -0.8263    0.0003    6.1790 N   0  0  0  0  0  0  0  0  0  0  0  0
   -1.6367   -0.0000    4.9925 C   0  0  0  0  0  0  0  0  0  0  0  0
   -0.7397    0.0000    3.7939 C   0  0  0  0  0  0  0  0  0  0  0  0
    0.5665    0.0000    3.8383 N   0  0  0  0  0  0  0  0  0  0  0  0
    1.0439   -0.0000    2.5514 N   0  0  0  0  0  0  0  0  0  0  0  0
    0.0000   -0.0000    1.7585 C   0  0  0  0  0  0  0  0  0  0  0  0
   -1.1682    0.0001    2.4853 N   0  0  0  0  0  0  0  0  0  0  0  0
   -2.5192    0.0002    1.9604 C   0  0  0  0  0  0  0  0  0  0  0  0
    0.0000    0.0000    0.0000 S   0  0  0  0  0  0  0  0  0  0  0  0
   -3.2473   -0.0016    6.7926 H   0  0  0  0  0  0  0  0  0  0  0  0
   -1.8063   -0.0031   10.4925 H   0  0  0  0  0  0  0  0  0  0  0  0
   -6.8548    0.8897   10.6681 H   0  0  0  0  0  0  0  0  0  0  0  0
   -6.8542   -0.9005   10.6666 H   0  0  0  0  0  0  0  0  0  0  0  0
   -6.1024   -0.0062   12.0300 H   0  0  0  0  0  0  0  0  0  0  0  0
    0.1817    0.0010    6.0461 H   0  0  0  0  0  0  0  0  0  0  0  0
   -2.3018    0.8886    4.9475 H   0  0  0  0  0  0  0  0  0  0  0  0
   -2.3012   -0.8892    4.9478 H   0  0  0  0  0  0  0  0  0  0  0  0
   -3.2365    0.0006    2.7904 H   0  0  0  0  0  0  0  0  0  0  0  0
   -2.6948    0.8953    1.3440 H   0  0  0  0  0  0  0  0  0  0  0  0
   -2.6953   -0.8953    1.3446 H   0  0  0  0  0  0  0  0  0  0  0  0
    1.3506   -0.0002   -0.0572 H   0  0  0  0  0  0  0  0  0  0  0  0
  2  3  1  0  0  0  0
  2  1  2  0  0  0  0
  3  4  1  0  0  0  0
  4  8  2  0  0  0  0
  4  5  1  0  0  0  0
  5 21  1  0  0  0  0
  5  6  2  0  0  0  0
  7 10  1  0  0  0  0
  7  6  1  0  0  0  0
  8  7  1  0  0  0  0
  9  8  1  0  0  0  0
 10 24  1  0  0  0  0
 11  2  1  0  0  0  0
 12 11  1  0  0  0  0
 13 14  2  0  0  0  0
 13 12  1  0  0  0  0
 15 14  1  0  0  0  0
 16 17  1  0  0  0  0
 16 15  2  0  0  0  0
 17 13  1  0  0  0  0
 18 17  1  0  0  0  0
 18 28  1  0  0  0  0
 19 16  1  0  0  0  0
 20  3  1  0  0  0  0
 22 10  1  0  0  0  0
 23 10  1  0  0  0  0
 25 11  1  0  0  0  0
 26 12  1  0  0  0  0
 27 12  1  0  0  0  0
 29 18  1  0  0  0  0
 30 18  1  0  0  0  0
 31 19  1  0  0  0  0
M  END
