317356342.xyz
 OpenBabel08132112113D
Sc1nnc(o1)c1ccc(cc1)OCc1ccccc1F
 32 34  0  0  0  0  0  0  0  0999 V2000
    0.0000    0.0000    0.0000 S   0  0  0  0  0  0  0  0  0  0  0  0
   -0.0000    0.0000    1.7509 C   0  0  0  0  0  0  0  0  0  0  0  0
   -1.0319   -0.0004    2.5317 N   0  0  0  0  0  0  0  0  0  0  0  0
   -0.5355   -0.0008    3.8261 N   0  0  0  0  0  0  0  0  0  0  0  0
    0.7605   -0.0002    3.7427 C   0  0  0  0  0  0  0  0  0  0  0  0
    1.1755    0.0000    2.4337 O   0  0  0  0  0  0  0  0  0  0  0  0
    1.7468   -0.0000    4.8104 C   0  0  0  0  0  0  0  0  0  0  0  0
    1.3124   -0.0002    6.1520 C   0  0  0  0  0  0  0  0  0  0  0  0
    2.2330   -0.0000    7.1866 C   0  0  0  0  0  0  0  0  0  0  0  0
    3.6135    0.0003    6.9106 C   0  0  0  0  0  0  0  0  0  0  0  0
    4.0556    0.0006    5.5789 C   0  0  0  0  0  0  0  0  0  0  0  0
    3.1218    0.0003    4.5414 C   0  0  0  0  0  0  0  0  0  0  0  0
    4.4337    0.0005    7.9864 O   0  0  0  0  0  0  0  0  0  0  0  0
    5.8312   -0.0007    7.7917 C   0  0  0  0  0  0  0  0  0  0  0  0
    6.5243   -0.0025    9.1284 C   0  0  0  0  0  0  0  0  0  0  0  0
    5.8438   -0.0030   10.3502 C   0  0  0  0  0  0  0  0  0  0  0  0
    6.5482   -0.0048   11.5582 C   0  0  0  0  0  0  0  0  0  0  0  0
    7.9450   -0.0063   11.5581 C   0  0  0  0  0  0  0  0  0  0  0  0
    8.6446   -0.0058   10.3475 C   0  0  0  0  0  0  0  0  0  0  0  0
    7.9218   -0.0039    9.1615 C   0  0  0  0  0  0  0  0  0  0  0  0
    8.5803   -0.0034    7.9848 F   0  0  0  0  0  0  0  0  0  0  0  0
    1.3484    0.0027   -0.0955 H   0  0  0  0  0  0  0  0  0  0  0  0
    0.2411   -0.0005    6.3584 H   0  0  0  0  0  0  0  0  0  0  0  0
    1.9123   -0.0002    8.2296 H   0  0  0  0  0  0  0  0  0  0  0  0
    5.1176    0.0009    5.3379 H   0  0  0  0  0  0  0  0  0  0  0  0
    3.4691    0.0005    3.5070 H   0  0  0  0  0  0  0  0  0  0  0  0
    6.1393   -0.8877    7.2064 H   0  0  0  0  0  0  0  0  0  0  0  0
    6.1410    0.8868    7.2080 H   0  0  0  0  0  0  0  0  0  0  0  0
    4.7540   -0.0019   10.3385 H   0  0  0  0  0  0  0  0  0  0  0  0
    6.0012   -0.0052   12.5034 H   0  0  0  0  0  0  0  0  0  0  0  0
    8.4971   -0.0077   12.5005 H   0  0  0  0  0  0  0  0  0  0  0  0
    9.7352   -0.0068   10.3071 H   0  0  0  0  0  0  0  0  0  0  0  0
  1  2  1  0  0  0  0
  2  6  1  0  0  0  0
  2  3  2  0  0  0  0
  3  4  1  0  0  0  0
  5  4  2  0  0  0  0
  5  7  1  0  0  0  0
  6  5  1  0  0  0  0
  7  8  1  0  0  0  0
  8 23  1  0  0  0  0
  8  9  2  0  0  0  0
  9 24  1  0  0  0  0
 10  9  1  0  0  0  0
 10 13  1  0  0  0  0
 11 10  2  0  0  0  0
 12  7  2  0  0  0  0
 12 11  1  0  0  0  0
 14 13  1  0  0  0  0
 14 15  1  0  0  0  0
 15 20  2  0  0  0  0
 15 16  1  0  0  0  0
 16 17  2  0  0  0  0
 17 30  1  0  0  0  0
 18 17  1  0  0  0  0
 18 31  1  0  0  0  0
 19 18  2  0  0  0  0
 20 19  1  0  0  0  0
 21 20  1  0  0  0  0
 22  1  1  0  0  0  0
 25 11  1  0  0  0  0
 26 12  1  0  0  0  0
 27 14  1  0  0  0  0
 28 14  1  0  0  0  0
 29 16  1  0  0  0  0
 32 19  1  0  0  0  0
M  END
