317485874.xyz
 OpenBabel08132112113D
CCOc1n(CCC)nc(c1S)C
 29 29  0  0  0  0  0  0  0  0999 V2000
    2.6909    2.2657    1.4801 C   0  0  0  0  0  0  0  0  0  0  0  0
    2.9975    0.7797    1.4375 C   0  0  0  0  0  0  0  0  0  0  0  0
    2.4148    0.0714    2.5426 O   0  0  0  0  0  0  0  0  0  0  0  0
    1.0825   -0.0000    2.6558 C   0  0  0  0  0  0  0  0  0  0  0  0
    0.5633   -0.1442    3.9014 N   0  0  0  0  0  0  0  0  0  0  0  0
    1.2818   -0.1044    5.1594 C   0  0  0  0  0  0  0  0  0  0  0  0
    1.2852    1.2896    5.7888 C   0  0  0  0  0  0  0  0  0  0  0  0
    1.9965    1.3158    7.1392 C   0  0  0  0  0  0  0  0  0  0  0  0
   -0.7917   -0.2284    3.8876 N   0  0  0  0  0  0  0  0  0  0  0  0
   -1.1448   -0.1488    2.6135 C   0  0  0  0  0  0  0  0  0  0  0  0
    0.0000   -0.0000    1.7669 C   0  0  0  0  0  0  0  0  0  0  0  0
    0.0000    0.0000    0.0000 S   0  0  0  0  0  0  0  0  0  0  0  0
   -2.5744   -0.2159    2.1877 C   0  0  0  0  0  0  0  0  0  0  0  0
    3.2071    2.7780    0.6529 H   0  0  0  0  0  0  0  0  0  0  0  0
    3.0275    2.7113    2.4292 H   0  0  0  0  0  0  0  0  0  0  0  0
    1.6114    2.4498    1.3724 H   0  0  0  0  0  0  0  0  0  0  0  0
    4.0760    0.5955    1.5424 H   0  0  0  0  0  0  0  0  0  0  0  0
    2.6547    0.3337    0.4925 H   0  0  0  0  0  0  0  0  0  0  0  0
    2.3088   -0.4474    4.9683 H   0  0  0  0  0  0  0  0  0  0  0  0
    0.7961   -0.8295    5.8299 H   0  0  0  0  0  0  0  0  0  0  0  0
    0.2390    1.6203    5.8947 H   0  0  0  0  0  0  0  0  0  0  0  0
    1.7692    1.9914    5.0878 H   0  0  0  0  0  0  0  0  0  0  0  0
    1.5107    0.6375    7.8601 H   0  0  0  0  0  0  0  0  0  0  0  0
    3.0492    1.0005    7.0460 H   0  0  0  0  0  0  0  0  0  0  0  0
    1.9890    2.3261    7.5763 H   0  0  0  0  0  0  0  0  0  0  0  0
   -0.3121    1.3065   -0.2084 H   0  0  0  0  0  0  0  0  0  0  0  0
   -3.2111   -0.4276    3.0575 H   0  0  0  0  0  0  0  0  0  0  0  0
   -2.7246   -0.9995    1.4283 H   0  0  0  0  0  0  0  0  0  0  0  0
   -2.9027    0.7347    1.7351 H   0  0  0  0  0  0  0  0  0  0  0  0
  1 15  1  0  0  0  0
  2  1  1  0  0  0  0
  2 17  1  0  0  0  0
  2  3  1  0  0  0  0
  3  4  1  0  0  0  0
  4  5  1  0  0  0  0
  5  6  1  0  0  0  0
  6  7  1  0  0  0  0
  6 20  1  0  0  0  0
  7 21  1  0  0  0  0
  7  8  1  0  0  0  0
  8 25  1  0  0  0  0
  8 23  1  0  0  0  0
  9  5  1  0  0  0  0
 10  9  2  0  0  0  0
 11 10  1  0  0  0  0
 11  4  2  0  0  0  0
 12 11  1  0  0  0  0
 13 10  1  0  0  0  0
 13 27  1  0  0  0  0
 14  1  1  0  0  0  0
 16  1  1  0  0  0  0
 18  2  1  0  0  0  0
 19  6  1  0  0  0  0
 22  7  1  0  0  0  0
 24  8  1  0  0  0  0
 26 12  1  0  0  0  0
 28 13  1  0  0  0  0
 29 13  1  0  0  0  0
M  END
