317553408.xyz
 OpenBabel08132112123D
CCc1c(F)cc(cc1Br)S
 19 19  0  0  0  0  0  0  0  0999 V2000
   -0.1943   -1.4478    6.6969 C   0  0  0  0  0  0  0  0  0  0  0  0
   -0.1435   -0.0204    6.1350 C   0  0  0  0  0  0  0  0  0  0  0  0
   -0.1384    0.0102    4.6277 C   0  0  0  0  0  0  0  0  0  0  0  0
    1.0736   -0.0004    3.9250 C   0  0  0  0  0  0  0  0  0  0  0  0
    2.2155   -0.0099    4.6343 F   0  0  0  0  0  0  0  0  0  0  0  0
    1.1745    0.0000    2.5390 C   0  0  0  0  0  0  0  0  0  0  0  0
   -0.0000    0.0000    1.7759 C   0  0  0  0  0  0  0  0  0  0  0  0
   -1.2423   -0.0023    2.4274 C   0  0  0  0  0  0  0  0  0  0  0  0
   -1.2893   -0.0028    3.8222 C   0  0  0  0  0  0  0  0  0  0  0  0
   -3.0173   -0.0233    4.6397 Br  0  0  0  0  0  0  0  0  0  0  0  0
    0.0000    0.0000    0.0000 S   0  0  0  0  0  0  0  0  0  0  0  0
    0.6794   -2.0299    6.3651 H   0  0  0  0  0  0  0  0  0  0  0  0
   -1.1016   -1.9712    6.3588 H   0  0  0  0  0  0  0  0  0  0  0  0
   -0.1979   -1.4343    7.7981 H   0  0  0  0  0  0  0  0  0  0  0  0
   -1.0070    0.5539    6.5016 H   0  0  0  0  0  0  0  0  0  0  0  0
    0.7620    0.4861    6.4999 H   0  0  0  0  0  0  0  0  0  0  0  0
    2.1664   -0.0024    2.0855 H   0  0  0  0  0  0  0  0  0  0  0  0
   -2.1697   -0.0069    1.8540 H   0  0  0  0  0  0  0  0  0  0  0  0
    1.3420    0.0055   -0.1557 H   0  0  0  0  0  0  0  0  0  0  0  0
  1 14  1  0  0  0  0
  2 16  1  0  0  0  0
  2 15  1  0  0  0  0
  2  1  1  0  0  0  0
  3  2  1  0  0  0  0
  4  3  1  0  0  0  0
  4  5  1  0  0  0  0
  6  4  2  0  0  0  0
  7  8  2  0  0  0  0
  7  6  1  0  0  0  0
  8  9  1  0  0  0  0
  9  3  2  0  0  0  0
  9 10  1  0  0  0  0
 11  7  1  0  0  0  0
 12  1  1  0  0  0  0
 13  1  1  0  0  0  0
 17  6  1  0  0  0  0
 18  8  1  0  0  0  0
 19 11  1  0  0  0  0
M  END
