317585273.xyz
 OpenBabel08132112123D
CCOc1cc(S)c(cc1C(=O)C)CC
 31 31  0  0  0  0  0  0  0  0999 V2000
   -5.0085   -0.1410    4.5099 C   0  0  0  0  0  0  0  0  0  0  0  0
   -3.8224   -0.0954    3.5684 C   0  0  0  0  0  0  0  0  0  0  0  0
   -2.6401   -0.0931    4.3552 O   0  0  0  0  0  0  0  0  0  0  0  0
   -1.4233   -0.0637    3.7642 C   0  0  0  0  0  0  0  0  0  0  0  0
   -1.2706   -0.0251    2.3727 C   0  0  0  0  0  0  0  0  0  0  0  0
   -0.0000   -0.0000    1.7795 C   0  0  0  0  0  0  0  0  0  0  0  0
    0.0000    0.0000    0.0000 S   0  0  0  0  0  0  0  0  0  0  0  0
    1.1653   -0.0000    2.5778 C   0  0  0  0  0  0  0  0  0  0  0  0
    0.9786   -0.0263    3.9597 C   0  0  0  0  0  0  0  0  0  0  0  0
   -0.2729   -0.0610    4.5916 C   0  0  0  0  0  0  0  0  0  0  0  0
   -0.2556   -0.0914    6.0946 C   0  0  0  0  0  0  0  0  0  0  0  0
    0.8126   -0.0758    6.6821 O   0  0  0  0  0  0  0  0  0  0  0  0
   -1.5463   -0.1430    6.8827 C   0  0  0  0  0  0  0  0  0  0  0  0
    2.5663   -0.0300    2.0120 C   0  0  0  0  0  0  0  0  0  0  0  0
    2.9927   -1.4211    1.5225 C   0  0  0  0  0  0  0  0  0  0  0  0
   -4.9775   -1.0484    5.1317 H   0  0  0  0  0  0  0  0  0  0  0  0
   -5.0106    0.7347    5.1763 H   0  0  0  0  0  0  0  0  0  0  0  0
   -5.9475   -0.1440    3.9357 H   0  0  0  0  0  0  0  0  0  0  0  0
   -3.8542    0.8118    2.9378 H   0  0  0  0  0  0  0  0  0  0  0  0
   -3.8207   -0.9706    2.8931 H   0  0  0  0  0  0  0  0  0  0  0  0
   -2.1462   -0.0050    1.7259 H   0  0  0  0  0  0  0  0  0  0  0  0
    1.2914    0.3422   -0.1845 H   0  0  0  0  0  0  0  0  0  0  0  0
    1.8467   -0.0259    4.6224 H   0  0  0  0  0  0  0  0  0  0  0  0
   -2.1387   -1.0274    6.6064 H   0  0  0  0  0  0  0  0  0  0  0  0
   -1.2936   -0.1668    7.9504 H   0  0  0  0  0  0  0  0  0  0  0  0
   -2.1775    0.7284    6.6555 H   0  0  0  0  0  0  0  0  0  0  0  0
    2.6655    0.7037    1.1917 H   0  0  0  0  0  0  0  0  0  0  0  0
    3.2630    0.3115    2.7932 H   0  0  0  0  0  0  0  0  0  0  0  0
    2.3170   -1.7932    0.7372 H   0  0  0  0  0  0  0  0  0  0  0  0
    2.9679   -2.1445    2.3519 H   0  0  0  0  0  0  0  0  0  0  0  0
    4.0158   -1.4024    1.1144 H   0  0  0  0  0  0  0  0  0  0  0  0
  1 16  1  0  0  0  0
  1 17  1  0  0  0  0
  2  3  1  0  0  0  0
  2  1  1  0  0  0  0
  4  3  1  0  0  0  0
  4 10  2  0  0  0  0
  5  4  1  0  0  0  0
  6  5  2  0  0  0  0
  6  8  1  0  0  0  0
  7  6  1  0  0  0  0
  8  9  2  0  0  0  0
  9 10  1  0  0  0  0
  9 23  1  0  0  0  0
 10 11  1  0  0  0  0
 11 12  2  0  0  0  0
 11 13  1  0  0  0  0
 13 25  1  0  0  0  0
 14  8  1  0  0  0  0
 14 28  1  0  0  0  0
 15 14  1  0  0  0  0
 15 30  1  0  0  0  0
 18  1  1  0  0  0  0
 19  2  1  0  0  0  0
 20  2  1  0  0  0  0
 21  5  1  0  0  0  0
 22  7  1  0  0  0  0
 24 13  1  0  0  0  0
 26 13  1  0  0  0  0
 27 14  1  0  0  0  0
 29 15  1  0  0  0  0
 31 15  1  0  0  0  0
M  END
