317523415.xyz
 OpenBabel08132112113D
CCc1cc(I)cc(c1S)C(=O)Cl
 21 21  0  0  0  0  0  0  0  0999 V2000
    3.8747   -0.0012    2.1915 C   0  0  0  0  0  0  0  0  0  0  0  0
    2.5252   -0.0003    1.4803 C   0  0  0  0  0  0  0  0  0  0  0  0
    1.2946   -0.0000    2.3633 C   0  0  0  0  0  0  0  0  0  0  0  0
    1.4115    0.0003    3.7516 C   0  0  0  0  0  0  0  0  0  0  0  0
    0.2773    0.0007    4.5710 C   0  0  0  0  0  0  0  0  0  0  0  0
    0.5041    0.0011    6.6813 I   0  0  0  0  0  0  0  0  0  0  0  0
   -0.9869    0.0007    4.0120 C   0  0  0  0  0  0  0  0  0  0  0  0
   -1.1545    0.0005    2.6094 C   0  0  0  0  0  0  0  0  0  0  0  0
    0.0000    0.0000    1.7672 C   0  0  0  0  0  0  0  0  0  0  0  0
    0.0000    0.0000    0.0000 S   0  0  0  0  0  0  0  0  0  0  0  0
   -2.5280    0.0007    2.0511 C   0  0  0  0  0  0  0  0  0  0  0  0
   -2.8480    0.0007    0.8958 O   0  0  0  0  0  0  0  0  0  0  0  0
   -3.8743    0.0015    3.2615 Cl  0  0  0  0  0  0  0  0  0  0  0  0
    4.0054    0.8894    2.8262 H   0  0  0  0  0  0  0  0  0  0  0  0
    4.6890   -0.0016    1.4519 H   0  0  0  0  0  0  0  0  0  0  0  0
    4.0043   -0.8922    2.8259 H   0  0  0  0  0  0  0  0  0  0  0  0
    2.4639   -0.8749    0.8078 H   0  0  0  0  0  0  0  0  0  0  0  0
    2.4646    0.8747    0.8083 H   0  0  0  0  0  0  0  0  0  0  0  0
    2.4004    0.0003    4.2074 H   0  0  0  0  0  0  0  0  0  0  0  0
   -1.8703    0.0011    4.6448 H   0  0  0  0  0  0  0  0  0  0  0  0
   -1.3459    0.0004   -0.1408 H   0  0  0  0  0  0  0  0  0  0  0  0
  1 16  1  0  0  0  0
  1 14  1  0  0  0  0
  2  1  1  0  0  0  0
  2  3  1  0  0  0  0
  3  4  1  0  0  0  0
  4 19  1  0  0  0  0
  4  5  2  0  0  0  0
  5  6  1  0  0  0  0
  7  5  1  0  0  0  0
  7 20  1  0  0  0  0
  8  7  2  0  0  0  0
  9  3  2  0  0  0  0
  9  8  1  0  0  0  0
 10  9  1  0  0  0  0
 11  8  1  0  0  0  0
 11 13  1  0  0  0  0
 12 11  2  0  0  0  0
 15  1  1  0  0  0  0
 17  2  1  0  0  0  0
 18  2  1  0  0  0  0
 21 10  1  0  0  0  0
M  END
