317547400.xyz
 OpenBabel08132112113D
CCOc1cc([N+](=O)[O-])c(cc1CC)S
 28 28  0  0  0  0  0  0  0  0999 V2000
    0.9313    1.4572    7.0680 C   0  0  0  0  0  0  0  0  0  0  0  0
    0.3739    0.0549    6.8762 C   0  0  0  0  0  0  0  0  0  0  0  0
   -0.6762    0.0080    5.9156 O   0  0  0  0  0  0  0  0  0  0  0  0
   -0.3932    0.0188    4.5895 C   0  0  0  0  0  0  0  0  0  0  0  0
    0.8860    0.0074    4.0557 C   0  0  0  0  0  0  0  0  0  0  0  0
    1.0888   -0.0000    2.6620 C   0  0  0  0  0  0  0  0  0  0  0  0
    2.4973   -0.0010    2.2468 N   0  0  0  0  0  0  0  0  0  0  0  0
    3.3497    0.0627    3.1191 O   0  0  0  0  0  0  0  0  0  0  0  0
    2.7774   -0.0671    1.0506 O   0  0  0  0  0  0  0  0  0  0  0  0
   -0.0000   -0.0000    1.7653 C   0  0  0  0  0  0  0  0  0  0  0  0
   -1.2874    0.0123    2.3505 C   0  0  0  0  0  0  0  0  0  0  0  0
   -1.5153    0.0216    3.7185 C   0  0  0  0  0  0  0  0  0  0  0  0
   -2.9101    0.0685    4.2858 C   0  0  0  0  0  0  0  0  0  0  0  0
   -3.2959    1.4669    4.7901 C   0  0  0  0  0  0  0  0  0  0  0  0
    0.0000    0.0000    0.0000 S   0  0  0  0  0  0  0  0  0  0  0  0
    1.3989    1.8433    6.1504 H   0  0  0  0  0  0  0  0  0  0  0  0
    1.6948    1.4525    7.8618 H   0  0  0  0  0  0  0  0  0  0  0  0
    0.1297    2.1513    7.3632 H   0  0  0  0  0  0  0  0  0  0  0  0
   -0.0861   -0.3054    7.8079 H   0  0  0  0  0  0  0  0  0  0  0  0
    1.1673   -0.6632    6.6045 H   0  0  0  0  0  0  0  0  0  0  0  0
    1.7746    0.0077    4.6787 H   0  0  0  0  0  0  0  0  0  0  0  0
   -2.1509    0.0109    1.6804 H   0  0  0  0  0  0  0  0  0  0  0  0
   -2.9785   -0.6472    5.1202 H   0  0  0  0  0  0  0  0  0  0  0  0
   -3.6230   -0.2593    3.5131 H   0  0  0  0  0  0  0  0  0  0  0  0
   -4.3172    1.4648    5.2018 H   0  0  0  0  0  0  0  0  0  0  0  0
   -3.2578    2.2051    3.9738 H   0  0  0  0  0  0  0  0  0  0  0  0
   -2.6086    1.7967    5.5828 H   0  0  0  0  0  0  0  0  0  0  0  0
    1.3450   -0.0493   -0.1288 H   0  0  0  0  0  0  0  0  0  0  0  0
  1 18  1  0  0  0  0
  1 17  1  0  0  0  0
  2  1  1  0  0  0  0
  2 19  1  0  0  0  0
  3  2  1  0  0  0  0
  4  3  1  0  0  0  0
  5  4  1  0  0  0  0
  5 21  1  0  0  0  0
  6  5  2  0  0  0  0
  7  6  1  0  0  0  0
  7  8  2  0  0  0  0
  9  7  2  0  0  0  0
 10 11  2  0  0  0  0
 10  6  1  0  0  0  0
 11 12  1  0  0  0  0
 12 13  1  0  0  0  0
 12  4  2  0  0  0  0
 13 14  1  0  0  0  0
 13 23  1  0  0  0  0
 14 25  1  0  0  0  0
 14 27  1  0  0  0  0
 15 10  1  0  0  0  0
 16  1  1  0  0  0  0
 20  2  1  0  0  0  0
 22 11  1  0  0  0  0
 24 13  1  0  0  0  0
 26 14  1  0  0  0  0
 28 15  1  0  0  0  0
M  END
