317542885.xyz
 OpenBabel08132112113D
CCc1cc([N+](=O)[O-])c(cc1S)OC
 25 25  0  0  0  0  0  0  0  0999 V2000
   -3.7269   -0.2628    2.8807 C   0  0  0  0  0  0  0  0  0  0  0  0
   -2.5515   -0.0902    1.9229 C   0  0  0  0  0  0  0  0  0  0  0  0
   -1.1790   -0.0555    2.5587 C   0  0  0  0  0  0  0  0  0  0  0  0
   -1.0110   -0.0925    3.9421 C   0  0  0  0  0  0  0  0  0  0  0  0
    0.2440   -0.0759    4.5502 C   0  0  0  0  0  0  0  0  0  0  0  0
    0.2730   -0.0904    6.0171 N   0  0  0  0  0  0  0  0  0  0  0  0
    1.2505    0.3678    6.5822 O   0  0  0  0  0  0  0  0  0  0  0  0
   -0.7107   -0.5468    6.5880 O   0  0  0  0  0  0  0  0  0  0  0  0
    1.4243   -0.0437    3.7715 C   0  0  0  0  0  0  0  0  0  0  0  0
    1.2664    0.0000    2.3783 C   0  0  0  0  0  0  0  0  0  0  0  0
    0.0000    0.0000    1.7782 C   0  0  0  0  0  0  0  0  0  0  0  0
    0.0000    0.0000    0.0000 S   0  0  0  0  0  0  0  0  0  0  0  0
    2.6186   -0.0784    4.3768 O   0  0  0  0  0  0  0  0  0  0  0  0
    3.7976   -0.0866    3.5994 C   0  0  0  0  0  0  0  0  0  0  0  0
   -3.6451   -1.1973    3.4571 H   0  0  0  0  0  0  0  0  0  0  0  0
   -3.7963    0.5698    3.5978 H   0  0  0  0  0  0  0  0  0  0  0  0
   -4.6730   -0.2971    2.3201 H   0  0  0  0  0  0  0  0  0  0  0  0
   -2.7001    0.8407    1.3427 H   0  0  0  0  0  0  0  0  0  0  0  0
   -2.5635   -0.9038    1.1757 H   0  0  0  0  0  0  0  0  0  0  0  0
   -1.8693   -0.1500    4.6078 H   0  0  0  0  0  0  0  0  0  0  0  0
    2.1456    0.0459    1.7377 H   0  0  0  0  0  0  0  0  0  0  0  0
   -1.2449    0.4855   -0.1859 H   0  0  0  0  0  0  0  0  0  0  0  0
    3.8417   -0.9674    2.9351 H   0  0  0  0  0  0  0  0  0  0  0  0
    4.6311   -0.1290    4.3114 H   0  0  0  0  0  0  0  0  0  0  0  0
    3.8892    0.8298    2.9909 H   0  0  0  0  0  0  0  0  0  0  0  0
  1 15  1  0  0  0  0
  1 16  1  0  0  0  0
  2  3  1  0  0  0  0
  2  1  1  0  0  0  0
  3  4  2  0  0  0  0
  4  5  1  0  0  0  0
  4 20  1  0  0  0  0
  5  6  1  0  0  0  0
  6  7  2  0  0  0  0
  6  8  2  0  0  0  0
  9 13  1  0  0  0  0
  9  5  2  0  0  0  0
 10  9  1  0  0  0  0
 11 10  2  0  0  0  0
 11  3  1  0  0  0  0
 12 11  1  0  0  0  0
 14 24  1  0  0  0  0
 14 13  1  0  0  0  0
 17  1  1  0  0  0  0
 18  2  1  0  0  0  0
 19  2  1  0  0  0  0
 21 10  1  0  0  0  0
 22 12  1  0  0  0  0
 23 14  1  0  0  0  0
 25 14  1  0  0  0  0
M  END
