317550849.xyz
 OpenBabel08132112113D
CCc1cc(Br)cc(c1S)F
 19 19  0  0  0  0  0  0  0  0999 V2000
    3.8118   -0.0002    2.4946 C   0  0  0  0  0  0  0  0  0  0  0  0
    2.5198   -0.0001    1.6846 C   0  0  0  0  0  0  0  0  0  0  0  0
    1.2292   -0.0000    2.4744 C   0  0  0  0  0  0  0  0  0  0  0  0
    1.2144    0.0001    3.8745 C   0  0  0  0  0  0  0  0  0  0  0  0
    0.0064    0.0001    4.5745 C   0  0  0  0  0  0  0  0  0  0  0  0
    0.0226    0.0004    6.4788 Br  0  0  0  0  0  0  0  0  0  0  0  0
   -1.2143    0.0001    3.9021 C   0  0  0  0  0  0  0  0  0  0  0  0
   -1.1901    0.0000    2.5127 C   0  0  0  0  0  0  0  0  0  0  0  0
   -0.0000   -0.0000    1.7757 C   0  0  0  0  0  0  0  0  0  0  0  0
    0.0000    0.0000    0.0000 S   0  0  0  0  0  0  0  0  0  0  0  0
   -2.3651   -0.0000    1.8564 F   0  0  0  0  0  0  0  0  0  0  0  0
    3.8895   -0.8905    3.1381 H   0  0  0  0  0  0  0  0  0  0  0  0
    4.6822   -0.0002    1.8217 H   0  0  0  0  0  0  0  0  0  0  0  0
    3.8896    0.8900    3.1383 H   0  0  0  0  0  0  0  0  0  0  0  0
    2.5061   -0.8759    1.0100 H   0  0  0  0  0  0  0  0  0  0  0  0
    2.5063    0.8757    1.0100 H   0  0  0  0  0  0  0  0  0  0  0  0
    2.1500    0.0002    4.4305 H   0  0  0  0  0  0  0  0  0  0  0  0
   -2.1700    0.0001    4.4254 H   0  0  0  0  0  0  0  0  0  0  0  0
   -1.3439    0.0002   -0.1284 H   0  0  0  0  0  0  0  0  0  0  0  0
  1 12  1  0  0  0  0
  1 14  1  0  0  0  0
  2  3  1  0  0  0  0
  2  1  1  0  0  0  0
  3  4  1  0  0  0  0
  4 17  1  0  0  0  0
  4  5  2  0  0  0  0
  5  6  1  0  0  0  0
  7 18  1  0  0  0  0
  7  5  1  0  0  0  0
  8  7  2  0  0  0  0
  9  3  2  0  0  0  0
  9  8  1  0  0  0  0
 10  9  1  0  0  0  0
 11  8  1  0  0  0  0
 13  1  1  0  0  0  0
 15  2  1  0  0  0  0
 16  2  1  0  0  0  0
 19 10  1  0  0  0  0
M  END
