317589268.xyz
 OpenBabel08132112123D
COC(=O)c1cc(CC)c(cc1S)OC(F)(F)F
 29 29  0  0  0  0  0  0  0  0999 V2000
   -4.2421    0.0016    0.6667 C   0  0  0  0  0  0  0  0  0  0  0  0
   -2.8525    0.0013    1.0025 O   0  0  0  0  0  0  0  0  0  0  0  0
   -2.5607   -0.0000    2.3243 C   0  0  0  0  0  0  0  0  0  0  0  0
   -3.4389   -0.0008    3.1566 O   0  0  0  0  0  0  0  0  0  0  0  0
   -1.1055   -0.0002    2.6580 C   0  0  0  0  0  0  0  0  0  0  0  0
   -0.8520   -0.0005    4.0476 C   0  0  0  0  0  0  0  0  0  0  0  0
    0.4186   -0.0003    4.6031 C   0  0  0  0  0  0  0  0  0  0  0  0
    0.6864   -0.0003    6.0911 C   0  0  0  0  0  0  0  0  0  0  0  0
   -0.5527    0.0013    6.9799 C   0  0  0  0  0  0  0  0  0  0  0  0
    1.4940    0.0002    3.6927 C   0  0  0  0  0  0  0  0  0  0  0  0
    1.2997    0.0000    2.3196 C   0  0  0  0  0  0  0  0  0  0  0  0
    0.0000    0.0000    1.7728 C   0  0  0  0  0  0  0  0  0  0  0  0
    0.0000    0.0000    0.0000 S   0  0  0  0  0  0  0  0  0  0  0  0
    2.7442    0.0002    4.2938 O   0  0  0  0  0  0  0  0  0  0  0  0
    3.8999    0.0117    3.5927 C   0  0  0  0  0  0  0  0  0  0  0  0
    4.8954    0.0134    4.4671 F   0  0  0  0  0  0  0  0  0  0  0  0
    4.0134    1.0971    2.8152 F   0  0  0  0  0  0  0  0  0  0  0  0
    4.0280   -1.0637    2.8034 F   0  0  0  0  0  0  0  0  0  0  0  0
   -4.7387   -0.8912    1.0732 H   0  0  0  0  0  0  0  0  0  0  0  0
   -4.7384    0.8941    1.0743 H   0  0  0  0  0  0  0  0  0  0  0  0
   -4.2886    0.0023   -0.4291 H   0  0  0  0  0  0  0  0  0  0  0  0
   -1.7284   -0.0007    4.6935 H   0  0  0  0  0  0  0  0  0  0  0  0
    1.3201    0.8720    6.3288 H   0  0  0  0  0  0  0  0  0  0  0  0
    1.3182   -0.8738    6.3292 H   0  0  0  0  0  0  0  0  0  0  0  0
   -1.1800   -0.8873    6.8073 H   0  0  0  0  0  0  0  0  0  0  0  0
   -1.1786    0.8907    6.8057 H   0  0  0  0  0  0  0  0  0  0  0  0
   -0.2609    0.0019    8.0408 H   0  0  0  0  0  0  0  0  0  0  0  0
    2.1484   -0.0004    1.6383 H   0  0  0  0  0  0  0  0  0  0  0  0
   -1.3380   -0.0004   -0.1603 H   0  0  0  0  0  0  0  0  0  0  0  0
  1  2  1  0  0  0  0
  1 19  1  0  0  0  0
  1 20  1  0  0  0  0
  2  3  1  0  0  0  0
  3  5  1  0  0  0  0
  3  4  2  0  0  0  0
  5  6  2  0  0  0  0
  6  7  1  0  0  0  0
  6 22  1  0  0  0  0
  7  8  1  0  0  0  0
  8 23  1  0  0  0  0
  8 24  1  0  0  0  0
  8  9  1  0  0  0  0
  9 27  1  0  0  0  0
 10 14  1  0  0  0  0
 10  7  2  0  0  0  0
 11 10  1  0  0  0  0
 12 11  2  0  0  0  0
 12  5  1  0  0  0  0
 13 12  1  0  0  0  0
 15 14  1  0  0  0  0
 15 16  1  0  0  0  0
 17 15  1  0  0  0  0
 18 15  1  0  0  0  0
 21  1  1  0  0  0  0
 25  9  1  0  0  0  0
 26  9  1  0  0  0  0
 28 11  1  0  0  0  0
 29 13  1  0  0  0  0
M  END
