317578965.xyz
 OpenBabel08132112123D
CCc1cc(S)cc(c1C)CO
 26 26  0  0  0  0  0  0  0  0999 V2000
   -3.0816    1.4294    4.9594 C   0  0  0  0  0  0  0  0  0  0  0  0
   -2.6922    0.0277    4.4711 C   0  0  0  0  0  0  0  0  0  0  0  0
   -1.3172   -0.0187    3.8386 C   0  0  0  0  0  0  0  0  0  0  0  0
   -1.2327   -0.0096    2.4393 C   0  0  0  0  0  0  0  0  0  0  0  0
    0.0000   -0.0000    1.7798 C   0  0  0  0  0  0  0  0  0  0  0  0
    0.0000    0.0000    0.0000 S   0  0  0  0  0  0  0  0  0  0  0  0
    1.1700    0.0000    2.5477 C   0  0  0  0  0  0  0  0  0  0  0  0
    1.1099   -0.0061    3.9447 C   0  0  0  0  0  0  0  0  0  0  0  0
   -0.1361   -0.0189    4.6126 C   0  0  0  0  0  0  0  0  0  0  0  0
   -0.1678   -0.0112    6.1230 C   0  0  0  0  0  0  0  0  0  0  0  0
    2.4093   -0.0301    4.7220 C   0  0  0  0  0  0  0  0  0  0  0  0
    2.6171   -1.2405    5.4330 O   0  0  0  0  0  0  0  0  0  0  0  0
   -3.0674    2.1500    4.1266 H   0  0  0  0  0  0  0  0  0  0  0  0
   -4.0930    1.4309    5.3960 H   0  0  0  0  0  0  0  0  0  0  0  0
   -2.3822    1.7966    5.7261 H   0  0  0  0  0  0  0  0  0  0  0  0
   -2.7491   -0.6832    5.3113 H   0  0  0  0  0  0  0  0  0  0  0  0
   -3.4337   -0.3162    3.7327 H   0  0  0  0  0  0  0  0  0  0  0  0
   -2.1567   -0.0091    1.8547 H   0  0  0  0  0  0  0  0  0  0  0  0
    1.3398    0.0774   -0.1575 H   0  0  0  0  0  0  0  0  0  0  0  0
    2.1480    0.0068    2.0586 H   0  0  0  0  0  0  0  0  0  0  0  0
   -1.1334   -0.3467    6.5218 H   0  0  0  0  0  0  0  0  0  0  0  0
    0.0097    1.0047    6.5185 H   0  0  0  0  0  0  0  0  0  0  0  0
    0.6184   -0.6609    6.5288 H   0  0  0  0  0  0  0  0  0  0  0  0
    3.2491    0.1752    4.0304 H   0  0  0  0  0  0  0  0  0  0  0  0
    2.4211    0.7671    5.4820 H   0  0  0  0  0  0  0  0  0  0  0  0
    2.4530   -1.9698    4.8198 H   0  0  0  0  0  0  0  0  0  0  0  0
  1 14  1  0  0  0  0
  1 15  1  0  0  0  0
  2  1  1  0  0  0  0
  2 16  1  0  0  0  0
  3  2  1  0  0  0  0
  3  9  2  0  0  0  0
  4  3  1  0  0  0  0
  5  4  2  0  0  0  0
  5  7  1  0  0  0  0
  6  5  1  0  0  0  0
  7  8  2  0  0  0  0
  8  9  1  0  0  0  0
  8 11  1  0  0  0  0
  9 10  1  0  0  0  0
 10 22  1  0  0  0  0
 10 21  1  0  0  0  0
 10 23  1  0  0  0  0
 11 12  1  0  0  0  0
 11 25  1  0  0  0  0
 13  1  1  0  0  0  0
 17  2  1  0  0  0  0
 18  4  1  0  0  0  0
 19  6  1  0  0  0  0
 20  7  1  0  0  0  0
 24 11  1  0  0  0  0
 26 12  1  0  0  0  0
M  END
