317582037.xyz
 OpenBabel08132112123D
CCc1cc(C(=O)Cl)c(cc1S)[N+](=O)[O-]
 23 23  0  0  0  0  0  0  0  0999 V2000
    2.9815    1.4371    1.5663 C   0  0  0  0  0  0  0  0  0  0  0  0
    2.5583    0.0342    2.0273 C   0  0  0  0  0  0  0  0  0  0  0  0
    1.1566    0.0000    2.5872 C   0  0  0  0  0  0  0  0  0  0  0  0
    0.9817    0.0153    3.9768 C   0  0  0  0  0  0  0  0  0  0  0  0
   -0.2743    0.0368    4.5910 C   0  0  0  0  0  0  0  0  0  0  0  0
   -0.4041   -0.1302    6.0667 C   0  0  0  0  0  0  0  0  0  0  0  0
   -1.1983   -0.8075    6.6283 O   0  0  0  0  0  0  0  0  0  0  0  0
    0.8541    0.7798    6.9924 Cl  0  0  0  0  0  0  0  0  0  0  0  0
   -1.3980    0.0599    3.7488 C   0  0  0  0  0  0  0  0  0  0  0  0
   -1.2715    0.0264    2.3700 C   0  0  0  0  0  0  0  0  0  0  0  0
   -0.0000   -0.0000    1.7733 C   0  0  0  0  0  0  0  0  0  0  0  0
    0.0000    0.0000    0.0000 S   0  0  0  0  0  0  0  0  0  0  0  0
   -2.7645    0.2173    4.2881 N   0  0  0  0  0  0  0  0  0  0  0  0
   -2.8972    0.9570    5.2453 O   0  0  0  0  0  0  0  0  0  0  0  0
   -3.6611   -0.3646    3.7032 O   0  0  0  0  0  0  0  0  0  0  0  0
    4.0025    1.4226    1.1552 H   0  0  0  0  0  0  0  0  0  0  0  0
    2.3049    1.8276    0.7911 H   0  0  0  0  0  0  0  0  0  0  0  0
    2.9618    2.1431    2.4104 H   0  0  0  0  0  0  0  0  0  0  0  0
    2.6502   -0.6843    1.1943 H   0  0  0  0  0  0  0  0  0  0  0  0
    3.2548   -0.3228    2.8011 H   0  0  0  0  0  0  0  0  0  0  0  0
    1.8654   -0.0036    4.6162 H   0  0  0  0  0  0  0  0  0  0  0  0
   -2.1780    0.0315    1.7638 H   0  0  0  0  0  0  0  0  0  0  0  0
    1.3168   -0.2214   -0.1852 H   0  0  0  0  0  0  0  0  0  0  0  0
  1  2  1  0  0  0  0
  1 18  1  0  0  0  0
  2  3  1  0  0  0  0
  2 20  1  0  0  0  0
  3  4  2  0  0  0  0
  4  5  1  0  0  0  0
  4 21  1  0  0  0  0
  5  6  1  0  0  0  0
  6  7  2  0  0  0  0
  6  8  1  0  0  0  0
  9 13  1  0  0  0  0
  9  5  2  0  0  0  0
 10  9  1  0  0  0  0
 11 10  2  0  0  0  0
 11  3  1  0  0  0  0
 12 11  1  0  0  0  0
 13 14  2  0  0  0  0
 15 13  2  0  0  0  0
 16  1  1  0  0  0  0
 17  1  1  0  0  0  0
 19  2  1  0  0  0  0
 22 10  1  0  0  0  0
 23 12  1  0  0  0  0
M  END
