317587481.xyz
 OpenBabel08132112123D
COC(=O)Cc1c(S)ccc(c1CC)C(F)(F)F
 31 31  0  0  0  0  0  0  0  0999 V2000
    4.8456   -2.8221    1.4933 C   0  0  0  0  0  0  0  0  0  0  0  0
    4.2696   -1.5688    1.8730 O   0  0  0  0  0  0  0  0  0  0  0  0
    3.0394   -1.3147    1.4078 C   0  0  0  0  0  0  0  0  0  0  0  0
    2.4346   -2.0869    0.6968 O   0  0  0  0  0  0  0  0  0  0  0  0
    2.5281    0.0407    1.8541 C   0  0  0  0  0  0  0  0  0  0  0  0
    1.1863   -0.0000    2.5599 C   0  0  0  0  0  0  0  0  0  0  0  0
   -0.0000    0.0000    1.7874 C   0  0  0  0  0  0  0  0  0  0  0  0
    0.0000    0.0000    0.0000 S   0  0  0  0  0  0  0  0  0  0  0  0
   -1.2484    0.0591    2.4146 C   0  0  0  0  0  0  0  0  0  0  0  0
   -1.3312    0.1060    3.8001 C   0  0  0  0  0  0  0  0  0  0  0  0
   -0.1716    0.0680    4.5778 C   0  0  0  0  0  0  0  0  0  0  0  0
    1.1052    0.0103    3.9729 C   0  0  0  0  0  0  0  0  0  0  0  0
    2.3599   -0.0777    4.8220 C   0  0  0  0  0  0  0  0  0  0  0  0
    2.8462   -1.5198    5.0280 C   0  0  0  0  0  0  0  0  0  0  0  0
   -0.3314    0.1112    6.0807 C   0  0  0  0  0  0  0  0  0  0  0  0
    0.2218    1.2192    6.6207 F   0  0  0  0  0  0  0  0  0  0  0  0
    0.2465   -0.9444    6.6927 F   0  0  0  0  0  0  0  0  0  0  0  0
   -1.6225    0.1091    6.4513 F   0  0  0  0  0  0  0  0  0  0  0  0
    4.2368   -3.6557    1.8736 H   0  0  0  0  0  0  0  0  0  0  0  0
    5.8466   -2.8435    1.9398 H   0  0  0  0  0  0  0  0  0  0  0  0
    4.9080   -2.9040    0.3985 H   0  0  0  0  0  0  0  0  0  0  0  0
    3.2976    0.5199    2.4660 H   0  0  0  0  0  0  0  0  0  0  0  0
    2.4044    0.6338    0.9321 H   0  0  0  0  0  0  0  0  0  0  0  0
    0.9082   -1.0002   -0.1344 H   0  0  0  0  0  0  0  0  0  0  0  0
   -2.1551    0.0527    1.8077 H   0  0  0  0  0  0  0  0  0  0  0  0
   -2.3057    0.1533    4.2849 H   0  0  0  0  0  0  0  0  0  0  0  0
    2.1857    0.3874    5.7987 H   0  0  0  0  0  0  0  0  0  0  0  0
    3.1639    0.5124    4.3589 H   0  0  0  0  0  0  0  0  0  0  0  0
    3.7414   -1.5343    5.6694 H   0  0  0  0  0  0  0  0  0  0  0  0
    2.0681   -2.1254    5.5126 H   0  0  0  0  0  0  0  0  0  0  0  0
    3.1135   -1.9963    4.0750 H   0  0  0  0  0  0  0  0  0  0  0  0
  1  2  1  0  0  0  0
  1 19  1  0  0  0  0
  1 20  1  0  0  0  0
  3  5  1  0  0  0  0
  3  2  1  0  0  0  0
  4  3  2  0  0  0  0
  5 22  1  0  0  0  0
  5  6  1  0  0  0  0
  6 12  2  0  0  0  0
  7  9  2  0  0  0  0
  7  6  1  0  0  0  0
  8  7  1  0  0  0  0
  9 10  1  0  0  0  0
 10 26  1  0  0  0  0
 10 11  2  0  0  0  0
 11 15  1  0  0  0  0
 12 11  1  0  0  0  0
 12 13  1  0  0  0  0
 13 14  1  0  0  0  0
 13 27  1  0  0  0  0
 14 30  1  0  0  0  0
 14 29  1  0  0  0  0
 15 18  1  0  0  0  0
 15 16  1  0  0  0  0
 15 17  1  0  0  0  0
 21  1  1  0  0  0  0
 23  5  1  0  0  0  0
 24  8  1  0  0  0  0
 25  9  1  0  0  0  0
 28 13  1  0  0  0  0
 31 14  1  0  0  0  0
M  END
