317523336.xyz
 OpenBabel08132112113D
CCOc1cc(CC)cc(c1CC#N)S
 30 30  0  0  0  0  0  0  0  0999 V2000
   -2.1773    1.4413    6.4860 C   0  0  0  0  0  0  0  0  0  0  0  0
   -2.3671    0.0095    6.0085 C   0  0  0  0  0  0  0  0  0  0  0  0
   -2.3046   -0.1058    4.5916 O   0  0  0  0  0  0  0  0  0  0  0  0
   -1.1133   -0.0666    3.9398 C   0  0  0  0  0  0  0  0  0  0  0  0
    0.1322   -0.0706    4.5787 C   0  0  0  0  0  0  0  0  0  0  0  0
    1.3181   -0.0474    3.8319 C   0  0  0  0  0  0  0  0  0  0  0  0
    2.6544    0.0148    4.5350 C   0  0  0  0  0  0  0  0  0  0  0  0
    3.0577    1.4491    4.9037 C   0  0  0  0  0  0  0  0  0  0  0  0
    1.2434   -0.0000    2.4378 C   0  0  0  0  0  0  0  0  0  0  0  0
   -0.0000    0.0000    1.7906 C   0  0  0  0  0  0  0  0  0  0  0  0
   -1.1919   -0.0594    2.5304 C   0  0  0  0  0  0  0  0  0  0  0  0
   -2.5493   -0.1263    1.8636 C   0  0  0  0  0  0  0  0  0  0  0  0
   -2.9986    1.1788    1.3677 C   0  0  0  0  0  0  0  0  0  0  0  0
   -3.3118    2.2148    0.9530 N   0  0  0  0  0  0  0  0  0  0  0  0
    0.0000    0.0000    0.0000 S   0  0  0  0  0  0  0  0  0  0  0  0
   -2.3077    1.4954    7.5784 H   0  0  0  0  0  0  0  0  0  0  0  0
   -1.1757    1.8246    6.2409 H   0  0  0  0  0  0  0  0  0  0  0  0
   -2.9200    2.1016    6.0135 H   0  0  0  0  0  0  0  0  0  0  0  0
   -1.6431   -0.6774    6.4806 H   0  0  0  0  0  0  0  0  0  0  0  0
   -3.3726   -0.3510    6.2704 H   0  0  0  0  0  0  0  0  0  0  0  0
    0.1959   -0.0871    5.6664 H   0  0  0  0  0  0  0  0  0  0  0  0
    3.4277   -0.4295    3.8878 H   0  0  0  0  0  0  0  0  0  0  0  0
    2.6169   -0.6024    5.4482 H   0  0  0  0  0  0  0  0  0  0  0  0
    4.0328    1.4691    5.4157 H   0  0  0  0  0  0  0  0  0  0  0  0
    3.1296    2.0803    4.0042 H   0  0  0  0  0  0  0  0  0  0  0  0
    2.3122    1.9095    5.5715 H   0  0  0  0  0  0  0  0  0  0  0  0
    2.1557    0.0566    1.8409 H   0  0  0  0  0  0  0  0  0  0  0  0
   -2.5031   -0.8107    1.0003 H   0  0  0  0  0  0  0  0  0  0  0  0
   -3.2965   -0.5064    2.5731 H   0  0  0  0  0  0  0  0  0  0  0  0
   -0.9204    0.9788   -0.1721 H   0  0  0  0  0  0  0  0  0  0  0  0
  1 16  1  0  0  0  0
  2 20  1  0  0  0  0
  2 19  1  0  0  0  0
  2  1  1  0  0  0  0
  3  2  1  0  0  0  0
  4  5  1  0  0  0  0
  4  3  1  0  0  0  0
  5 21  1  0  0  0  0
  6  7  1  0  0  0  0
  6  5  2  0  0  0  0
  7  8  1  0  0  0  0
  7 23  1  0  0  0  0
  8 24  1  0  0  0  0
  8 26  1  0  0  0  0
  9  6  1  0  0  0  0
 10  9  2  0  0  0  0
 10 11  1  0  0  0  0
 11  4  2  0  0  0  0
 12 11  1  0  0  0  0
 12 29  1  0  0  0  0
 13 12  1  0  0  0  0
 14 13  3  0  0  0  0
 15 10  1  0  0  0  0
 17  1  1  0  0  0  0
 18  1  1  0  0  0  0
 22  7  1  0  0  0  0
 25  8  1  0  0  0  0
 27  9  1  0  0  0  0
 28 12  1  0  0  0  0
 30 15  1  0  0  0  0
M  END
