317581316.xyz
 OpenBabel08132112123D
CCc1cc(S)c(c(c1)C(=O)C)Br
 24 24  0  0  0  0  0  0  0  0999 V2000
    3.2605   -1.3861    4.7414 C   0  0  0  0  0  0  0  0  0  0  0  0
    2.8080    0.0365    4.3849 C   0  0  0  0  0  0  0  0  0  0  0  0
    1.4329    0.0660    3.7615 C   0  0  0  0  0  0  0  0  0  0  0  0
    1.2698   -0.0000    2.3775 C   0  0  0  0  0  0  0  0  0  0  0  0
    0.0000   -0.0000    1.7739 C   0  0  0  0  0  0  0  0  0  0  0  0
    0.0000    0.0000    0.0000 S   0  0  0  0  0  0  0  0  0  0  0  0
   -1.1378    0.0298    2.6055 C   0  0  0  0  0  0  0  0  0  0  0  0
   -1.0021    0.0555    4.0065 C   0  0  0  0  0  0  0  0  0  0  0  0
    0.2851    0.1010    4.5587 C   0  0  0  0  0  0  0  0  0  0  0  0
   -2.1242    0.0408    5.0254 C   0  0  0  0  0  0  0  0  0  0  0  0
   -1.9987    0.6844    6.0459 O   0  0  0  0  0  0  0  0  0  0  0  0
   -3.3281   -0.8621    4.8333 C   0  0  0  0  0  0  0  0  0  0  0  0
   -2.8754    0.1587    1.8056 Br  0  0  0  0  0  0  0  0  0  0  0  0
    3.2968   -2.0247    3.8446 H   0  0  0  0  0  0  0  0  0  0  0  0
    2.5629   -1.8540    5.4538 H   0  0  0  0  0  0  0  0  0  0  0  0
    4.2625   -1.3805    5.1985 H   0  0  0  0  0  0  0  0  0  0  0  0
    3.5342    0.4922    3.6922 H   0  0  0  0  0  0  0  0  0  0  0  0
    2.8059    0.6599    5.2938 H   0  0  0  0  0  0  0  0  0  0  0  0
    2.1524   -0.0401    1.7332 H   0  0  0  0  0  0  0  0  0  0  0  0
   -1.3236   -0.2120   -0.1645 H   0  0  0  0  0  0  0  0  0  0  0  0
    0.3656    0.1625    5.6456 H   0  0  0  0  0  0  0  0  0  0  0  0
   -3.1504   -1.6771    4.1199 H   0  0  0  0  0  0  0  0  0  0  0  0
   -3.5963   -1.2633    5.8213 H   0  0  0  0  0  0  0  0  0  0  0  0
   -4.1817   -0.2701    4.4697 H   0  0  0  0  0  0  0  0  0  0  0  0
  1 16  1  0  0  0  0
  1 15  1  0  0  0  0
  2  1  1  0  0  0  0
  2 18  1  0  0  0  0
  3  2  1  0  0  0  0
  3  9  2  0  0  0  0
  4  3  1  0  0  0  0
  5  4  2  0  0  0  0
  5  7  1  0  0  0  0
  6  5  1  0  0  0  0
  7  8  2  0  0  0  0
  8  9  1  0  0  0  0
  8 10  1  0  0  0  0
  9 21  1  0  0  0  0
 10 11  2  0  0  0  0
 12 10  1  0  0  0  0
 12 23  1  0  0  0  0
 13  7  1  0  0  0  0
 14  1  1  0  0  0  0
 17  2  1  0  0  0  0
 19  4  1  0  0  0  0
 20  6  1  0  0  0  0
 22 12  1  0  0  0  0
 24 12  1  0  0  0  0
M  END
