317514033.xyz
 OpenBabel08132112113D
CCCOc1n(CC(C)C)nc(c1CCS)C
 41 41  0  0  0  0  0  0  0  0999 V2000
    1.4123    5.5190    2.2519 C   0  0  0  0  0  0  0  0  0  0  0  0
    0.7273    4.6825    3.3308 C   0  0  0  0  0  0  0  0  0  0  0  0
    1.1452    3.2245    3.2790 C   0  0  0  0  0  0  0  0  0  0  0  0
    0.4219    2.5129    4.2866 O   0  0  0  0  0  0  0  0  0  0  0  0
    0.8885    1.3041    4.6587 C   0  0  0  0  0  0  0  0  0  0  0  0
    0.9252    0.9971    5.9829 N   0  0  0  0  0  0  0  0  0  0  0  0
    0.6331    1.8877    7.0874 C   0  0  0  0  0  0  0  0  0  0  0  0
    1.7676    2.8791    7.3935 C   0  0  0  0  0  0  0  0  0  0  0  0
    3.0761    2.1599    7.7258 C   0  0  0  0  0  0  0  0  0  0  0  0
    1.3361    3.8245    8.5170 C   0  0  0  0  0  0  0  0  0  0  0  0
    1.3791   -0.2598    6.1905 N   0  0  0  0  0  0  0  0  0  0  0  0
    1.6323   -0.7546    4.9808 C   0  0  0  0  0  0  0  0  0  0  0  0
    1.3438    0.1930    3.9528 C   0  0  0  0  0  0  0  0  0  0  0  0
    1.3975   -0.0000    2.4662 C   0  0  0  0  0  0  0  0  0  0  0  0
    0.0000   -0.0000    1.8341 C   0  0  0  0  0  0  0  0  0  0  0  0
    0.0000    0.0000    0.0000 S   0  0  0  0  0  0  0  0  0  0  0  0
    2.1459   -2.1506    4.8168 C   0  0  0  0  0  0  0  0  0  0  0  0
    1.0953    6.5714    2.3059 H   0  0  0  0  0  0  0  0  0  0  0  0
    1.1702    5.1497    1.2418 H   0  0  0  0  0  0  0  0  0  0  0  0
    2.5093    5.4961    2.3597 H   0  0  0  0  0  0  0  0  0  0  0  0
    0.9574    5.0798    4.3337 H   0  0  0  0  0  0  0  0  0  0  0  0
   -0.3689    4.7322    3.2194 H   0  0  0  0  0  0  0  0  0  0  0  0
    2.2295    3.1130    3.4597 H   0  0  0  0  0  0  0  0  0  0  0  0
    0.9264    2.7987    2.2837 H   0  0  0  0  0  0  0  0  0  0  0  0
   -0.2896    2.4395    6.8522 H   0  0  0  0  0  0  0  0  0  0  0  0
    0.4388    1.2426    7.9567 H   0  0  0  0  0  0  0  0  0  0  0  0
    1.9212    3.4807    6.4792 H   0  0  0  0  0  0  0  0  0  0  0  0
    3.3789    1.4776    6.9184 H   0  0  0  0  0  0  0  0  0  0  0  0
    3.8897    2.8839    7.8921 H   0  0  0  0  0  0  0  0  0  0  0  0
    2.9679    1.5549    8.6415 H   0  0  0  0  0  0  0  0  0  0  0  0
    1.1499    3.2662    9.4504 H   0  0  0  0  0  0  0  0  0  0  0  0
    2.1173    4.5714    8.7278 H   0  0  0  0  0  0  0  0  0  0  0  0
    0.4114    4.3665    8.2601 H   0  0  0  0  0  0  0  0  0  0  0  0
    2.0055    0.7773    1.9750 H   0  0  0  0  0  0  0  0  0  0  0  0
    1.8960   -0.9563    2.2403 H   0  0  0  0  0  0  0  0  0  0  0  0
   -0.5995   -0.8412    2.2132 H   0  0  0  0  0  0  0  0  0  0  0  0
   -0.5410    0.9194    2.1068 H   0  0  0  0  0  0  0  0  0  0  0  0
    0.6460   -1.1795   -0.1552 H   0  0  0  0  0  0  0  0  0  0  0  0
    1.4600   -2.7704    4.2154 H   0  0  0  0  0  0  0  0  0  0  0  0
    2.2558   -2.6182    5.8049 H   0  0  0  0  0  0  0  0  0  0  0  0
    3.1271   -2.1669    4.3138 H   0  0  0  0  0  0  0  0  0  0  0  0
  1 18  1  0  0  0  0
  1 20  1  0  0  0  0
  1  2  1  0  0  0  0
  2 21  1  0  0  0  0
  3  2  1  0  0  0  0
  3 23  1  0  0  0  0
  3  4  1  0  0  0  0
  4  5  1  0  0  0  0
  5  6  1  0  0  0  0
  6 11  1  0  0  0  0
  6  7  1  0  0  0  0
  7  8  1  0  0  0  0
  7 26  1  0  0  0  0
  8  9  1  0  0  0  0
  8 10  1  0  0  0  0
  9 29  1  0  0  0  0
  9 30  1  0  0  0  0
 10 32  1  0  0  0  0
 10 31  1  0  0  0  0
 12 11  2  0  0  0  0
 13  5  2  0  0  0  0
 13 12  1  0  0  0  0
 14 13  1  0  0  0  0
 15 37  1  0  0  0  0
 15 36  1  0  0  0  0
 15 14  1  0  0  0  0
 16 15  1  0  0  0  0
 17 12  1  0  0  0  0
 17 40  1  0  0  0  0
 19  1  1  0  0  0  0
 22  2  1  0  0  0  0
 24  3  1  0  0  0  0
 25  7  1  0  0  0  0
 27  8  1  0  0  0  0
 28  9  1  0  0  0  0
 33 10  1  0  0  0  0
 34 14  1  0  0  0  0
 35 14  1  0  0  0  0
 38 16  1  0  0  0  0
 39 17  1  0  0  0  0
 41 17  1  0  0  0  0
M  END
