317591490.xyz
 OpenBabel08132112123D
N#CCc1cc(C#N)c(c(c1)S)F
 18 18  0  0  0  0  0  0  0  0999 V2000
   -4.7151   -0.0008    3.0733 N   0  0  0  0  0  0  0  0  0  0  0  0
   -3.7843   -0.0002    3.7620 C   0  0  0  0  0  0  0  0  0  0  0  0
   -2.5955    0.0004    4.6124 C   0  0  0  0  0  0  0  0  0  0  0  0
   -1.2764    0.0001    3.8524 C   0  0  0  0  0  0  0  0  0  0  0  0
   -0.0870    0.0001    4.5864 C   0  0  0  0  0  0  0  0  0  0  0  0
    1.1508    0.0000    3.9238 C   0  0  0  0  0  0  0  0  0  0  0  0
    2.3795   -0.0001    4.6604 C   0  0  0  0  0  0  0  0  0  0  0  0
    3.3632   -0.0002    5.2753 N   0  0  0  0  0  0  0  0  0  0  0  0
    1.1777   -0.0000    2.5221 C   0  0  0  0  0  0  0  0  0  0  0  0
    0.0000   -0.0000    1.7685 C   0  0  0  0  0  0  0  0  0  0  0  0
   -1.2246    0.0000    2.4563 C   0  0  0  0  0  0  0  0  0  0  0  0
    0.0000    0.0000    0.0000 S   0  0  0  0  0  0  0  0  0  0  0  0
    2.3612   -0.0001    1.9004 F   0  0  0  0  0  0  0  0  0  0  0  0
   -2.6470    0.8830    5.2724 H   0  0  0  0  0  0  0  0  0  0  0  0
   -2.6468   -0.8814    5.2734 H   0  0  0  0  0  0  0  0  0  0  0  0
   -0.1013    0.0002    5.6775 H   0  0  0  0  0  0  0  0  0  0  0  0
   -2.1530    0.0000    1.8810 H   0  0  0  0  0  0  0  0  0  0  0  0
    1.3430    0.0001   -0.1425 H   0  0  0  0  0  0  0  0  0  0  0  0
  1  2  3  0  0  0  0
  2  3  1  0  0  0  0
  3 14  1  0  0  0  0
  3 15  1  0  0  0  0
  4  5  2  0  0  0  0
  4  3  1  0  0  0  0
  5 16  1  0  0  0  0
  6  5  1  0  0  0  0
  6  7  1  0  0  0  0
  7  8  3  0  0  0  0
  9  6  2  0  0  0  0
 10 11  2  0  0  0  0
 10  9  1  0  0  0  0
 11  4  1  0  0  0  0
 12 10  1  0  0  0  0
 13  9  1  0  0  0  0
 17 11  1  0  0  0  0
 18 12  1  0  0  0  0
M  END
