317590033.xyz
 OpenBabel08132112123D
COC(=O)Cc1ccc(c(c1S)CC)[N+](=O)[O-]
 30 30  0  0  0  0  0  0  0  0999 V2000
   -4.4069    3.0687    2.0998 C   0  0  0  0  0  0  0  0  0  0  0  0
   -3.9345    1.7365    2.3273 O   0  0  0  0  0  0  0  0  0  0  0  0
   -3.0540    1.2595    1.4427 C   0  0  0  0  0  0  0  0  0  0  0  0
   -2.6739    1.8877    0.4785 O   0  0  0  0  0  0  0  0  0  0  0  0
   -2.5616   -0.1237    1.8228 C   0  0  0  0  0  0  0  0  0  0  0  0
   -1.2149   -0.0458    2.5130 C   0  0  0  0  0  0  0  0  0  0  0  0
   -1.1861   -0.0043    3.9124 C   0  0  0  0  0  0  0  0  0  0  0  0
    0.0195    0.0259    4.5966 C   0  0  0  0  0  0  0  0  0  0  0  0
    1.2090   -0.0078    3.8684 C   0  0  0  0  0  0  0  0  0  0  0  0
    1.2519   -0.0000    2.4628 C   0  0  0  0  0  0  0  0  0  0  0  0
   -0.0000   -0.0000    1.7918 C   0  0  0  0  0  0  0  0  0  0  0  0
    0.0000    0.0000    0.0000 S   0  0  0  0  0  0  0  0  0  0  0  0
    2.5388    0.0257    1.6706 C   0  0  0  0  0  0  0  0  0  0  0  0
    2.9669   -1.3656    1.1832 C   0  0  0  0  0  0  0  0  0  0  0  0
    2.4434   -0.0379    4.6803 N   0  0  0  0  0  0  0  0  0  0  0  0
    2.4212    0.5568    5.7459 O   0  0  0  0  0  0  0  0  0  0  0  0
    3.3978   -0.6746    4.2610 O   0  0  0  0  0  0  0  0  0  0  0  0
   -5.1028    3.2875    2.9179 H   0  0  0  0  0  0  0  0  0  0  0  0
   -3.5685    3.7806    2.1051 H   0  0  0  0  0  0  0  0  0  0  0  0
   -4.9194    3.1365    1.1291 H   0  0  0  0  0  0  0  0  0  0  0  0
   -2.4751   -0.7176    0.9015 H   0  0  0  0  0  0  0  0  0  0  0  0
   -3.2951   -0.5897    2.4921 H   0  0  0  0  0  0  0  0  0  0  0  0
   -2.1266   -0.0125    4.4673 H   0  0  0  0  0  0  0  0  0  0  0  0
    0.0632    0.0572    5.6842 H   0  0  0  0  0  0  0  0  0  0  0  0
   -1.0472    0.8532   -0.1451 H   0  0  0  0  0  0  0  0  0  0  0  0
    2.3789    0.6837    0.8032 H   0  0  0  0  0  0  0  0  0  0  0  0
    3.3463    0.4586    2.2723 H   0  0  0  0  0  0  0  0  0  0  0  0
    2.1900   -1.8281    0.5548 H   0  0  0  0  0  0  0  0  0  0  0  0
    3.8870   -1.2940    0.5829 H   0  0  0  0  0  0  0  0  0  0  0  0
    3.1635   -2.0251    2.0398 H   0  0  0  0  0  0  0  0  0  0  0  0
  1 19  1  0  0  0  0
  1  2  1  0  0  0  0
  1 18  1  0  0  0  0
  3  5  1  0  0  0  0
  3  2  1  0  0  0  0
  4  3  2  0  0  0  0
  5 22  1  0  0  0  0
  5  6  1  0  0  0  0
  6  7  2  0  0  0  0
  7 23  1  0  0  0  0
  7  8  1  0  0  0  0
  8 24  1  0  0  0  0
  9  8  2  0  0  0  0
  9 15  1  0  0  0  0
 10  9  1  0  0  0  0
 11 10  2  0  0  0  0
 11  6  1  0  0  0  0
 12 11  1  0  0  0  0
 13 27  1  0  0  0  0
 13 10  1  0  0  0  0
 14 13  1  0  0  0  0
 14 30  1  0  0  0  0
 15 16  2  0  0  0  0
 17 15  2  0  0  0  0
 20  1  1  0  0  0  0
 21  5  1  0  0  0  0
 25 12  1  0  0  0  0
 26 13  1  0  0  0  0
 28 14  1  0  0  0  0
 29 14  1  0  0  0  0
M  END
