317596090.xyz
 OpenBabel08132112123D
CCOc1c(C#N)ccc(c1C(=O)Cl)S
 23 23  0  0  0  0  0  0  0  0999 V2000
   -3.9087    0.5759    6.1722 C   0  0  0  0  0  0  0  0  0  0  0  0
   -2.4738    0.8213    5.7643 C   0  0  0  0  0  0  0  0  0  0  0  0
   -2.1681   -0.1082    4.7010 O   0  0  0  0  0  0  0  0  0  0  0  0
   -1.0278   -0.0010    3.9977 C   0  0  0  0  0  0  0  0  0  0  0  0
    0.2543   -0.0411    4.5883 C   0  0  0  0  0  0  0  0  0  0  0  0
    0.4261   -0.1996    5.9988 C   0  0  0  0  0  0  0  0  0  0  0  0
    0.5927   -0.3378    7.1399 N   0  0  0  0  0  0  0  0  0  0  0  0
    1.3911   -0.0109    3.7564 C   0  0  0  0  0  0  0  0  0  0  0  0
    1.2694   -0.0000    2.3777 C   0  0  0  0  0  0  0  0  0  0  0  0
   -0.0000   -0.0000    1.7680 C   0  0  0  0  0  0  0  0  0  0  0  0
   -1.1500    0.0621    2.5918 C   0  0  0  0  0  0  0  0  0  0  0  0
   -2.4998    0.2186    1.9833 C   0  0  0  0  0  0  0  0  0  0  0  0
   -2.9524   -0.4178    1.0838 O   0  0  0  0  0  0  0  0  0  0  0  0
   -3.4158    1.6424    2.6049 Cl  0  0  0  0  0  0  0  0  0  0  0  0
    0.0000    0.0000    0.0000 S   0  0  0  0  0  0  0  0  0  0  0  0
   -4.5863    0.7379    5.3216 H   0  0  0  0  0  0  0  0  0  0  0  0
   -4.1884    1.2636    6.9850 H   0  0  0  0  0  0  0  0  0  0  0  0
   -4.0360   -0.4563    6.5319 H   0  0  0  0  0  0  0  0  0  0  0  0
   -2.3346    1.8430    5.3748 H   0  0  0  0  0  0  0  0  0  0  0  0
   -1.7879    0.6663    6.6090 H   0  0  0  0  0  0  0  0  0  0  0  0
    2.3800   -0.0411    4.2170 H   0  0  0  0  0  0  0  0  0  0  0  0
    2.1628   -0.0243    1.7515 H   0  0  0  0  0  0  0  0  0  0  0  0
   -1.2697   -0.4296   -0.1679 H   0  0  0  0  0  0  0  0  0  0  0  0
  1 18  1  0  0  0  0
  1 17  1  0  0  0  0
  2  1  1  0  0  0  0
  2 20  1  0  0  0  0
  3  2  1  0  0  0  0
  4  5  1  0  0  0  0
  4  3  1  0  0  0  0
  5  6  1  0  0  0  0
  6  7  3  0  0  0  0
  8 21  1  0  0  0  0
  8  5  2  0  0  0  0
  9  8  1  0  0  0  0
 10  9  2  0  0  0  0
 10 11  1  0  0  0  0
 11  4  2  0  0  0  0
 12 11  1  0  0  0  0
 12 14  1  0  0  0  0
 13 12  2  0  0  0  0
 15 10  1  0  0  0  0
 16  1  1  0  0  0  0
 19  2  1  0  0  0  0
 22  9  1  0  0  0  0
 23 15  1  0  0  0  0
M  END
