317527582.xyz
 OpenBabel08132112113D
COc1c(CC)ccc(c1Br)S
 23 23  0  0  0  0  0  0  0  0999 V2000
   -2.7397   -1.1994    5.0858 C   0  0  0  0  0  0  0  0  0  0  0  0
   -2.1461    0.0565    4.7840 O   0  0  0  0  0  0  0  0  0  0  0  0
   -1.0272    0.0139    3.9988 C   0  0  0  0  0  0  0  0  0  0  0  0
    0.2367    0.0260    4.6139 C   0  0  0  0  0  0  0  0  0  0  0  0
    0.3550    0.1174    6.1170 C   0  0  0  0  0  0  0  0  0  0  0  0
    0.0662    1.5276    6.6491 C   0  0  0  0  0  0  0  0  0  0  0  0
    1.3666    0.0224    3.7868 C   0  0  0  0  0  0  0  0  0  0  0  0
    1.2574    0.0000    2.4007 C   0  0  0  0  0  0  0  0  0  0  0  0
   -0.0000   -0.0000    1.7726 C   0  0  0  0  0  0  0  0  0  0  0  0
   -1.1419    0.0089    2.5954 C   0  0  0  0  0  0  0  0  0  0  0  0
   -2.9014    0.0638    1.8536 Br  0  0  0  0  0  0  0  0  0  0  0  0
    0.0000    0.0000    0.0000 S   0  0  0  0  0  0  0  0  0  0  0  0
   -3.0991   -1.7047    4.1740 H   0  0  0  0  0  0  0  0  0  0  0  0
   -3.5948   -0.9963    5.7445 H   0  0  0  0  0  0  0  0  0  0  0  0
   -2.0285   -1.8639    5.6069 H   0  0  0  0  0  0  0  0  0  0  0  0
   -0.3369   -0.5950    6.5934 H   0  0  0  0  0  0  0  0  0  0  0  0
    1.3714   -0.1916    6.4097 H   0  0  0  0  0  0  0  0  0  0  0  0
    0.7617    2.2623    6.2137 H   0  0  0  0  0  0  0  0  0  0  0  0
   -0.9584    1.8323    6.3897 H   0  0  0  0  0  0  0  0  0  0  0  0
    0.1709    1.5651    7.7452 H   0  0  0  0  0  0  0  0  0  0  0  0
    2.3593    0.0339    4.2442 H   0  0  0  0  0  0  0  0  0  0  0  0
    2.1577   -0.0103    1.7823 H   0  0  0  0  0  0  0  0  0  0  0  0
   -1.3413   -0.0535   -0.1552 H   0  0  0  0  0  0  0  0  0  0  0  0
  1 15  1  0  0  0  0
  1 14  1  0  0  0  0
  2  1  1  0  0  0  0
  3  4  1  0  0  0  0
  3  2  1  0  0  0  0
  4  5  1  0  0  0  0
  5 17  1  0  0  0  0
  5 16  1  0  0  0  0
  5  6  1  0  0  0  0
  6 20  1  0  0  0  0
  7 21  1  0  0  0  0
  7  4  2  0  0  0  0
  8  7  1  0  0  0  0
  9  8  2  0  0  0  0
  9 10  1  0  0  0  0
 10  3  2  0  0  0  0
 11 10  1  0  0  0  0
 12  9  1  0  0  0  0
 13  1  1  0  0  0  0
 18  6  1  0  0  0  0
 19  6  1  0  0  0  0
 22  8  1  0  0  0  0
 23 12  1  0  0  0  0
M  END
