317553951.xyz
 OpenBabel08132112123D
CCc1cc(Br)c(c(c1)[N+](=O)[O-])S
 21 21  0  0  0  0  0  0  0  0999 V2000
   -0.5703    1.5103    6.6598 C   0  0  0  0  0  0  0  0  0  0  0  0
   -0.4335    0.0753    6.1329 C   0  0  0  0  0  0  0  0  0  0  0  0
   -0.2798    0.0222    4.6320 C   0  0  0  0  0  0  0  0  0  0  0  0
   -1.4018    0.0410    3.7901 C   0  0  0  0  0  0  0  0  0  0  0  0
   -1.2627    0.0355    2.4076 C   0  0  0  0  0  0  0  0  0  0  0  0
   -2.8553    0.0736    1.3631 Br  0  0  0  0  0  0  0  0  0  0  0  0
    0.0000    0.0000    1.7620 C   0  0  0  0  0  0  0  0  0  0  0  0
    1.1181   -0.0000    2.6366 C   0  0  0  0  0  0  0  0  0  0  0  0
    0.9737    0.0130    4.0304 C   0  0  0  0  0  0  0  0  0  0  0  0
    2.5206   -0.0024    2.1708 N   0  0  0  0  0  0  0  0  0  0  0  0
    2.7766   -0.3470    1.0198 O   0  0  0  0  0  0  0  0  0  0  0  0
    3.3780    0.3264    2.9712 O   0  0  0  0  0  0  0  0  0  0  0  0
    0.0000    0.0000    0.0000 S   0  0  0  0  0  0  0  0  0  0  0  0
   -0.6850    1.5197    7.7550 H   0  0  0  0  0  0  0  0  0  0  0  0
   -1.4478    2.0113    6.2209 H   0  0  0  0  0  0  0  0  0  0  0  0
    0.3171    2.1099    6.4030 H   0  0  0  0  0  0  0  0  0  0  0  0
   -1.3183   -0.5121    6.4289 H   0  0  0  0  0  0  0  0  0  0  0  0
    0.4366   -0.4100    6.6033 H   0  0  0  0  0  0  0  0  0  0  0  0
   -2.4059    0.0559    4.2183 H   0  0  0  0  0  0  0  0  0  0  0  0
    1.8810    0.0151    4.6322 H   0  0  0  0  0  0  0  0  0  0  0  0
    1.3391   -0.1731   -0.0994 H   0  0  0  0  0  0  0  0  0  0  0  0
  1 14  1  0  0  0  0
  2 17  1  0  0  0  0
  2 18  1  0  0  0  0
  2  1  1  0  0  0  0
  3  2  1  0  0  0  0
  4 19  1  0  0  0  0
  4  3  2  0  0  0  0
  5  4  1  0  0  0  0
  6  5  1  0  0  0  0
  7  5  2  0  0  0  0
  7  8  1  0  0  0  0
  8  9  2  0  0  0  0
  9  3  1  0  0  0  0
  9 20  1  0  0  0  0
 10  8  1  0  0  0  0
 10 12  2  0  0  0  0
 11 10  2  0  0  0  0
 13  7  1  0  0  0  0
 15  1  1  0  0  0  0
 16  1  1  0  0  0  0
 21 13  1  0  0  0  0
M  END
