317598468.xyz
 OpenBabel08132112123D
COC(=O)Cc1ccc(c(c1Cl)CC)S
 28 28  0  0  0  0  0  0  0  0999 V2000
    0.8321    3.8306    6.3040 C   0  0  0  0  0  0  0  0  0  0  0  0
    0.2779    2.6019    5.8383 O   0  0  0  0  0  0  0  0  0  0  0  0
    0.2913    1.5809    6.7104 C   0  0  0  0  0  0  0  0  0  0  0  0
    0.6782    1.6759    7.8468 O   0  0  0  0  0  0  0  0  0  0  0  0
   -0.2841    0.3073    6.1040 C   0  0  0  0  0  0  0  0  0  0  0  0
   -0.1884    0.1986    4.6059 C   0  0  0  0  0  0  0  0  0  0  0  0
   -1.3353    0.1999    3.8085 C   0  0  0  0  0  0  0  0  0  0  0  0
   -1.2475    0.0940    2.4227 C   0  0  0  0  0  0  0  0  0  0  0  0
   -0.0000   -0.0000    1.7963 C   0  0  0  0  0  0  0  0  0  0  0  0
    1.1917    0.0000    2.5573 C   0  0  0  0  0  0  0  0  0  0  0  0
    1.0513    0.0976    3.9519 C   0  0  0  0  0  0  0  0  0  0  0  0
    2.4991    0.1392    4.9551 Cl  0  0  0  0  0  0  0  0  0  0  0  0
    2.5567   -0.0289    1.9123 C   0  0  0  0  0  0  0  0  0  0  0  0
    3.0962    1.3839    1.6495 C   0  0  0  0  0  0  0  0  0  0  0  0
    0.0000    0.0000    0.0000 S   0  0  0  0  0  0  0  0  0  0  0  0
    0.2979    4.1891    7.1966 H   0  0  0  0  0  0  0  0  0  0  0  0
    0.7262    4.5460    5.4796 H   0  0  0  0  0  0  0  0  0  0  0  0
    1.8939    3.6991    6.5618 H   0  0  0  0  0  0  0  0  0  0  0  0
   -1.3416    0.2619    6.4107 H   0  0  0  0  0  0  0  0  0  0  0  0
    0.2298   -0.5246    6.6067 H   0  0  0  0  0  0  0  0  0  0  0  0
   -2.3153    0.2781    4.2852 H   0  0  0  0  0  0  0  0  0  0  0  0
   -2.1521    0.0787    1.8127 H   0  0  0  0  0  0  0  0  0  0  0  0
    3.2526   -0.5764    2.5633 H   0  0  0  0  0  0  0  0  0  0  0  0
    2.5064   -0.5796    0.9635 H   0  0  0  0  0  0  0  0  0  0  0  0
    2.4245    1.9339    0.9732 H   0  0  0  0  0  0  0  0  0  0  0  0
    4.0937    1.3411    1.1848 H   0  0  0  0  0  0  0  0  0  0  0  0
    3.1803    1.9489    2.5900 H   0  0  0  0  0  0  0  0  0  0  0  0
    0.7275   -1.1265   -0.1835 H   0  0  0  0  0  0  0  0  0  0  0  0
  1 18  1  0  0  0  0
  1 16  1  0  0  0  0
  2  1  1  0  0  0  0
  2  3  1  0  0  0  0
  3  4  2  0  0  0  0
  5 19  1  0  0  0  0
  5 20  1  0  0  0  0
  5  3  1  0  0  0  0
  6  5  1  0  0  0  0
  7 21  1  0  0  0  0
  7  6  2  0  0  0  0
  8  7  1  0  0  0  0
  9  8  2  0  0  0  0
  9 10  1  0  0  0  0
 10 11  2  0  0  0  0
 11  6  1  0  0  0  0
 11 12  1  0  0  0  0
 13 10  1  0  0  0  0
 13 23  1  0  0  0  0
 14 13  1  0  0  0  0
 14 27  1  0  0  0  0
 15  9  1  0  0  0  0
 17  1  1  0  0  0  0
 22  8  1  0  0  0  0
 24 13  1  0  0  0  0
 25 14  1  0  0  0  0
 26 14  1  0  0  0  0
 28 15  1  0  0  0  0
M  END
