317584133.xyz
 OpenBabel08132112123D
CCc1ccc(c(c1S)Br)CC(=O)O
 25 25  0  0  0  0  0  0  0  0999 V2000
   -2.9352    1.4682    1.1756 C   0  0  0  0  0  0  0  0  0  0  0  0
   -2.5506    0.0500    1.6228 C   0  0  0  0  0  0  0  0  0  0  0  0
   -1.2654    0.0070    2.4171 C   0  0  0  0  0  0  0  0  0  0  0  0
   -1.3135    0.0125    3.8127 C   0  0  0  0  0  0  0  0  0  0  0  0
   -0.1547    0.0114    4.5838 C   0  0  0  0  0  0  0  0  0  0  0  0
    1.1055    0.0061    3.9809 C   0  0  0  0  0  0  0  0  0  0  0  0
    1.1616    0.0000    2.5767 C   0  0  0  0  0  0  0  0  0  0  0  0
   -0.0000    0.0000    1.7783 C   0  0  0  0  0  0  0  0  0  0  0  0
    0.0000    0.0000    0.0000 S   0  0  0  0  0  0  0  0  0  0  0  0
    2.9008   -0.0197    1.7625 Br  0  0  0  0  0  0  0  0  0  0  0  0
    2.3453   -0.0183    4.8313 C   0  0  0  0  0  0  0  0  0  0  0  0
    3.0203   -1.3940    4.8798 C   0  0  0  0  0  0  0  0  0  0  0  0
    2.4834   -2.4228    4.5893 O   0  0  0  0  0  0  0  0  0  0  0  0
    4.2921   -1.3795    5.3417 O   0  0  0  0  0  0  0  0  0  0  0  0
   -2.1512    1.9143    0.5451 H   0  0  0  0  0  0  0  0  0  0  0  0
   -3.8708    1.4555    0.5947 H   0  0  0  0  0  0  0  0  0  0  0  0
   -3.0814    2.1261    2.0467 H   0  0  0  0  0  0  0  0  0  0  0  0
   -2.4635   -0.6063    0.7409 H   0  0  0  0  0  0  0  0  0  0  0  0
   -3.3588   -0.3693    2.2428 H   0  0  0  0  0  0  0  0  0  0  0  0
   -2.2895    0.0118    4.3043 H   0  0  0  0  0  0  0  0  0  0  0  0
   -0.2227    0.0059    5.6738 H   0  0  0  0  0  0  0  0  0  0  0  0
    1.3278   -0.1955   -0.1488 H   0  0  0  0  0  0  0  0  0  0  0  0
    2.0833    0.2415    5.8708 H   0  0  0  0  0  0  0  0  0  0  0  0
    3.0725    0.7355    4.4875 H   0  0  0  0  0  0  0  0  0  0  0  0
    4.5881   -0.4707    5.4916 H   0  0  0  0  0  0  0  0  0  0  0  0
  1  2  1  0  0  0  0
  1 17  1  0  0  0  0
  2 19  1  0  0  0  0
  2  3  1  0  0  0  0
  3  4  1  0  0  0  0
  4 20  1  0  0  0  0
  4  5  2  0  0  0  0
  5 21  1  0  0  0  0
  6  5  1  0  0  0  0
  6 11  1  0  0  0  0
  7  6  2  0  0  0  0
  8  3  2  0  0  0  0
  8  7  1  0  0  0  0
  9  8  1  0  0  0  0
 10  7  1  0  0  0  0
 11 12  1  0  0  0  0
 11 23  1  0  0  0  0
 12 14  1  0  0  0  0
 13 12  2  0  0  0  0
 14 25  1  0  0  0  0
 15  1  1  0  0  0  0
 16  1  1  0  0  0  0
 18  2  1  0  0  0  0
 22  9  1  0  0  0  0
 24 11  1  0  0  0  0
M  END
