317528314.xyz
 OpenBabel08132112113D
CCc1c(ccc(c1C(F)(F)F)S)[N+](=O)[O-]
 24 24  0  0  0  0  0  0  0  0999 V2000
   -2.2056   -1.0687    5.8885 C   0  0  0  0  0  0  0  0  0  0  0  0
   -2.0084    0.2264    5.0875 C   0  0  0  0  0  0  0  0  0  0  0  0
   -0.8702    0.1367    4.0856 C   0  0  0  0  0  0  0  0  0  0  0  0
    0.4642    0.1400    4.5259 C   0  0  0  0  0  0  0  0  0  0  0  0
    1.5446    0.0300    3.6493 C   0  0  0  0  0  0  0  0  0  0  0  0
    1.3127   -0.0000    2.2901 C   0  0  0  0  0  0  0  0  0  0  0  0
    0.0000    0.0000    1.7781 C   0  0  0  0  0  0  0  0  0  0  0  0
   -1.0897   -0.0081    2.6858 C   0  0  0  0  0  0  0  0  0  0  0  0
   -2.5331   -0.1745    2.2309 C   0  0  0  0  0  0  0  0  0  0  0  0
   -2.6623   -0.5629    0.9509 F   0  0  0  0  0  0  0  0  0  0  0  0
   -3.2335    0.9711    2.3536 F   0  0  0  0  0  0  0  0  0  0  0  0
   -3.1718   -1.1129    2.9528 F   0  0  0  0  0  0  0  0  0  0  0  0
    0.0000    0.0000    0.0000 S   0  0  0  0  0  0  0  0  0  0  0  0
    0.8361    0.2463    5.9522 N   0  0  0  0  0  0  0  0  0  0  0  0
    0.2150    1.0112    6.6719 O   0  0  0  0  0  0  0  0  0  0  0  0
    1.7857   -0.4296    6.3148 O   0  0  0  0  0  0  0  0  0  0  0  0
   -3.0305   -0.9453    6.6065 H   0  0  0  0  0  0  0  0  0  0  0  0
   -1.3064   -1.3371    6.4631 H   0  0  0  0  0  0  0  0  0  0  0  0
   -2.4522   -1.9089    5.2239 H   0  0  0  0  0  0  0  0  0  0  0  0
   -1.7766    1.0460    5.7763 H   0  0  0  0  0  0  0  0  0  0  0  0
   -2.9417    0.4949    4.5868 H   0  0  0  0  0  0  0  0  0  0  0  0
    2.5565    0.0039    4.0519 H   0  0  0  0  0  0  0  0  0  0  0  0
    2.1545   -0.0092    1.5952 H   0  0  0  0  0  0  0  0  0  0  0  0
   -1.2706    0.3701   -0.2356 H   0  0  0  0  0  0  0  0  0  0  0  0
  1 18  1  0  0  0  0
  1 17  1  0  0  0  0
  2 20  1  0  0  0  0
  2  1  1  0  0  0  0
  3  4  1  0  0  0  0
  3  2  1  0  0  0  0
  4 14  1  0  0  0  0
  5 22  1  0  0  0  0
  5  4  2  0  0  0  0
  6  5  1  0  0  0  0
  7  6  2  0  0  0  0
  7  8  1  0  0  0  0
  8  3  2  0  0  0  0
  9 11  1  0  0  0  0
  9  8  1  0  0  0  0
  9 12  1  0  0  0  0
 10  9  1  0  0  0  0
 13  7  1  0  0  0  0
 14 16  2  0  0  0  0
 14 15  2  0  0  0  0
 19  1  1  0  0  0  0
 21  2  1  0  0  0  0
 23  6  1  0  0  0  0
 24 13  1  0  0  0  0
M  END
