317507779.xyz
 OpenBabel08132112113D
Sc1nnc(o1)COc1ccc(cc1N)C(C)(C)C
 36 37  0  0  0  0  0  0  0  0999 V2000
    0.0000    0.0000    0.0000 S   0  0  0  0  0  0  0  0  0  0  0  0
   -0.0000   -0.0000    1.7501 C   0  0  0  0  0  0  0  0  0  0  0  0
   -1.0350   -0.0177    2.5269 N   0  0  0  0  0  0  0  0  0  0  0  0
   -0.5393   -0.0433    3.8257 N   0  0  0  0  0  0  0  0  0  0  0  0
    0.7479   -0.0274    3.7417 C   0  0  0  0  0  0  0  0  0  0  0  0
    1.1726   -0.0000    2.4374 O   0  0  0  0  0  0  0  0  0  0  0  0
    1.7670   -0.0172    4.8216 C   0  0  0  0  0  0  0  0  0  0  0  0
    2.6010   -1.1601    4.6726 O   0  0  0  0  0  0  0  0  0  0  0  0
    3.8600   -1.0352    5.2303 C   0  0  0  0  0  0  0  0  0  0  0  0
    4.1510   -1.5706    6.4806 C   0  0  0  0  0  0  0  0  0  0  0  0
    5.4363   -1.4611    7.0122 C   0  0  0  0  0  0  0  0  0  0  0  0
    6.4566   -0.8081    6.2974 C   0  0  0  0  0  0  0  0  0  0  0  0
    6.1469   -0.2805    5.0375 C   0  0  0  0  0  0  0  0  0  0  0  0
    4.8594   -0.3829    4.4823 C   0  0  0  0  0  0  0  0  0  0  0  0
    4.5274    0.1745    3.2536 N   0  0  0  0  0  0  0  0  0  0  0  0
    7.8637   -0.7007    6.9081 C   0  0  0  0  0  0  0  0  0  0  0  0
    7.7801    0.0672    8.2441 C   0  0  0  0  0  0  0  0  0  0  0  0
    8.4179   -2.1183    7.1623 C   0  0  0  0  0  0  0  0  0  0  0  0
    8.8457    0.0413    5.9885 C   0  0  0  0  0  0  0  0  0  0  0  0
    1.3419    0.1303   -0.0980 H   0  0  0  0  0  0  0  0  0  0  0  0
    1.2351   -0.0249    5.7872 H   0  0  0  0  0  0  0  0  0  0  0  0
    2.3676    0.9070    4.7543 H   0  0  0  0  0  0  0  0  0  0  0  0
    3.3546   -2.0815    7.0262 H   0  0  0  0  0  0  0  0  0  0  0  0
    5.6401   -1.8920    7.9934 H   0  0  0  0  0  0  0  0  0  0  0  0
    6.9112    0.2269    4.4484 H   0  0  0  0  0  0  0  0  0  0  0  0
    5.3058    0.3674    2.6341 H   0  0  0  0  0  0  0  0  0  0  0  0
    3.7455   -0.2764    2.7873 H   0  0  0  0  0  0  0  0  0  0  0  0
    8.7792    0.1543    8.7015 H   0  0  0  0  0  0  0  0  0  0  0  0
    7.3844    1.0829    8.0873 H   0  0  0  0  0  0  0  0  0  0  0  0
    7.1234   -0.4407    8.9657 H   0  0  0  0  0  0  0  0  0  0  0  0
    8.4830   -2.6872    6.2216 H   0  0  0  0  0  0  0  0  0  0  0  0
    7.7800   -2.6874    7.8544 H   0  0  0  0  0  0  0  0  0  0  0  0
    9.4271   -2.0642    7.6020 H   0  0  0  0  0  0  0  0  0  0  0  0
    8.5176    1.0728    5.7876 H   0  0  0  0  0  0  0  0  0  0  0  0
    9.8355    0.0952    6.4675 H   0  0  0  0  0  0  0  0  0  0  0  0
    8.9718   -0.4746    5.0241 H   0  0  0  0  0  0  0  0  0  0  0  0
  1  2  1  0  0  0  0
  2  6  1  0  0  0  0
  2  3  2  0  0  0  0
  3  4  1  0  0  0  0
  5  4  2  0  0  0  0
  5  7  1  0  0  0  0
  6  5  1  0  0  0  0
  7 21  1  0  0  0  0
  8  7  1  0  0  0  0
  8  9  1  0  0  0  0
  9 10  2  0  0  0  0
 10 11  1  0  0  0  0
 10 23  1  0  0  0  0
 11 24  1  0  0  0  0
 12 16  1  0  0  0  0
 12 11  2  0  0  0  0
 13 12  1  0  0  0  0
 14 13  2  0  0  0  0
 14  9  1  0  0  0  0
 15 14  1  0  0  0  0
 16 18  1  0  0  0  0
 16 17  1  0  0  0  0
 17 28  1  0  0  0  0
 17 30  1  0  0  0  0
 18 33  1  0  0  0  0
 18 32  1  0  0  0  0
 19 35  1  0  0  0  0
 19 16  1  0  0  0  0
 20  1  1  0  0  0  0
 22  7  1  0  0  0  0
 25 13  1  0  0  0  0
 26 15  1  0  0  0  0
 27 15  1  0  0  0  0
 29 17  1  0  0  0  0
 31 18  1  0  0  0  0
 34 19  1  0  0  0  0
 36 19  1  0  0  0  0
M  END
