317524663.xyz
 OpenBabel08132112113D
CCc1cc(F)cc(c1C(=O)C)S
 24 24  0  0  0  0  0  0  0  0999 V2000
    2.8378    1.5804    4.9796 C   0  0  0  0  0  0  0  0  0  0  0  0
    2.3941    0.1237    4.7817 C   0  0  0  0  0  0  0  0  0  0  0  0
    1.1356    0.0185    3.9489 C   0  0  0  0  0  0  0  0  0  0  0  0
   -0.1125   -0.0157    4.5836 C   0  0  0  0  0  0  0  0  0  0  0  0
   -1.2743   -0.0481    3.8206 C   0  0  0  0  0  0  0  0  0  0  0  0
   -2.4609   -0.0812    4.4416 F   0  0  0  0  0  0  0  0  0  0  0  0
   -1.2442   -0.0226    2.4312 C   0  0  0  0  0  0  0  0  0  0  0  0
   -0.0000    0.0000    1.7897 C   0  0  0  0  0  0  0  0  0  0  0  0
    1.1900    0.0000    2.5407 C   0  0  0  0  0  0  0  0  0  0  0  0
    2.5355   -0.0363    1.8464 C   0  0  0  0  0  0  0  0  0  0  0  0
    3.2151    0.9616    1.7307 O   0  0  0  0  0  0  0  0  0  0  0  0
    2.9837   -1.3895    1.3454 C   0  0  0  0  0  0  0  0  0  0  0  0
    0.0000    0.0000    0.0000 S   0  0  0  0  0  0  0  0  0  0  0  0
    2.0477    2.1650    5.4767 H   0  0  0  0  0  0  0  0  0  0  0  0
    3.0528    2.0490    4.0086 H   0  0  0  0  0  0  0  0  0  0  0  0
    3.7450    1.6319    5.6019 H   0  0  0  0  0  0  0  0  0  0  0  0
    3.2128   -0.4429    4.3092 H   0  0  0  0  0  0  0  0  0  0  0  0
    2.2152   -0.3493    5.7606 H   0  0  0  0  0  0  0  0  0  0  0  0
   -0.1898   -0.0165    5.6725 H   0  0  0  0  0  0  0  0  0  0  0  0
   -2.1770   -0.0008    1.8665 H   0  0  0  0  0  0  0  0  0  0  0  0
    3.9431   -1.2989    0.8188 H   0  0  0  0  0  0  0  0  0  0  0  0
    2.2166   -1.8153    0.6806 H   0  0  0  0  0  0  0  0  0  0  0  0
    3.0868   -2.0757    2.2026 H   0  0  0  0  0  0  0  0  0  0  0  0
    1.0478    0.8409   -0.1582 H   0  0  0  0  0  0  0  0  0  0  0  0
  1 14  1  0  0  0  0
  1 16  1  0  0  0  0
  2  1  1  0  0  0  0
  2 18  1  0  0  0  0
  3  4  1  0  0  0  0
  3  2  1  0  0  0  0
  4 19  1  0  0  0  0
  5  6  1  0  0  0  0
  5  4  2  0  0  0  0
  7  5  1  0  0  0  0
  8  7  2  0  0  0  0
  8  9  1  0  0  0  0
  9  3  2  0  0  0  0
 10  9  1  0  0  0  0
 11 10  2  0  0  0  0
 12 10  1  0  0  0  0
 12 23  1  0  0  0  0
 13  8  1  0  0  0  0
 15  1  1  0  0  0  0
 17  2  1  0  0  0  0
 20  7  1  0  0  0  0
 21 12  1  0  0  0  0
 22 12  1  0  0  0  0
 24 13  1  0  0  0  0
M  END
