317525688.xyz
 OpenBabel08132112113D
CCc1cc(C(=O)C)c(cc1S)F
 24 24  0  0  0  0  0  0  0  0999 V2000
   -3.8304   -0.0005    2.4382 C   0  0  0  0  0  0  0  0  0  0  0  0
   -2.5322   -0.0005    1.6372 C   0  0  0  0  0  0  0  0  0  0  0  0
   -1.2495   -0.0002    2.4408 C   0  0  0  0  0  0  0  0  0  0  0  0
   -1.2363   -0.0002    3.8344 C   0  0  0  0  0  0  0  0  0  0  0  0
   -0.0595   -0.0001    4.6094 C   0  0  0  0  0  0  0  0  0  0  0  0
   -0.1055    0.0001    6.1061 C   0  0  0  0  0  0  0  0  0  0  0  0
    0.9019    0.0011    6.7837 O   0  0  0  0  0  0  0  0  0  0  0  0
   -1.4758   -0.0012    6.7690 C   0  0  0  0  0  0  0  0  0  0  0  0
    1.1552   -0.0000    3.9003 C   0  0  0  0  0  0  0  0  0  0  0  0
    1.1901    0.0000    2.5100 C   0  0  0  0  0  0  0  0  0  0  0  0
   -0.0000    0.0000    1.7742 C   0  0  0  0  0  0  0  0  0  0  0  0
    0.0000    0.0000    0.0000 S   0  0  0  0  0  0  0  0  0  0  0  0
    2.3258    0.0001    4.5322 F   0  0  0  0  0  0  0  0  0  0  0  0
   -4.6969   -0.0007    1.7603 H   0  0  0  0  0  0  0  0  0  0  0  0
   -3.9128   -0.8909    3.0815 H   0  0  0  0  0  0  0  0  0  0  0  0
   -3.9130    0.8901    3.0812 H   0  0  0  0  0  0  0  0  0  0  0  0
   -2.5190   -0.8770    0.9634 H   0  0  0  0  0  0  0  0  0  0  0  0
   -2.5192    0.8757    0.9630 H   0  0  0  0  0  0  0  0  0  0  0  0
   -2.1916   -0.0003    4.3549 H   0  0  0  0  0  0  0  0  0  0  0  0
   -1.3278   -0.0019    7.8558 H   0  0  0  0  0  0  0  0  0  0  0  0
   -2.0600   -0.8892    6.4800 H   0  0  0  0  0  0  0  0  0  0  0  0
   -2.0605    0.8870    6.4815 H   0  0  0  0  0  0  0  0  0  0  0  0
    2.1668    0.0001    2.0236 H   0  0  0  0  0  0  0  0  0  0  0  0
    1.3432    0.0001   -0.1466 H   0  0  0  0  0  0  0  0  0  0  0  0
  1 16  1  0  0  0  0
  1 15  1  0  0  0  0
  2  1  1  0  0  0  0
  2  3  1  0  0  0  0
  3  4  1  0  0  0  0
  4 19  1  0  0  0  0
  4  5  2  0  0  0  0
  5  6  1  0  0  0  0
  6  8  1  0  0  0  0
  6  7  2  0  0  0  0
  8 20  1  0  0  0  0
  9 13  1  0  0  0  0
  9  5  1  0  0  0  0
 10  9  2  0  0  0  0
 11  3  2  0  0  0  0
 11 10  1  0  0  0  0
 12 11  1  0  0  0  0
 14  1  1  0  0  0  0
 17  2  1  0  0  0  0
 18  2  1  0  0  0  0
 21  8  1  0  0  0  0
 22  8  1  0  0  0  0
 23 10  1  0  0  0  0
 24 12  1  0  0  0  0
M  END
