317505597.xyz
 OpenBabel08132112113D
CCCOc1c(CCS)cnn1CC(C)C
 38 38  0  0  0  0  0  0  0  0999 V2000
   -0.0439   -5.4012    4.5271 C   0  0  0  0  0  0  0  0  0  0  0  0
   -0.4766   -3.9417    4.6562 C   0  0  0  0  0  0  0  0  0  0  0  0
    0.5787   -2.9505    4.1997 C   0  0  0  0  0  0  0  0  0  0  0  0
    0.8264   -3.1625    2.8042 O   0  0  0  0  0  0  0  0  0  0  0  0
    1.9005   -2.5387    2.2733 C   0  0  0  0  0  0  0  0  0  0  0  0
    2.2238   -1.1944    2.1134 C   0  0  0  0  0  0  0  0  0  0  0  0
    1.3944    0.0000    2.4743 C   0  0  0  0  0  0  0  0  0  0  0  0
    0.0000   -0.0000    1.8327 C   0  0  0  0  0  0  0  0  0  0  0  0
    0.0000    0.0000    0.0000 S   0  0  0  0  0  0  0  0  0  0  0  0
    3.4589   -1.2441    1.4181 C   0  0  0  0  0  0  0  0  0  0  0  0
    3.8581   -2.4898    1.1770 N   0  0  0  0  0  0  0  0  0  0  0  0
    2.8975   -3.2744    1.7047 N   0  0  0  0  0  0  0  0  0  0  0  0
    3.0037   -4.7196    1.6870 C   0  0  0  0  0  0  0  0  0  0  0  0
    3.5798   -5.3116    2.9834 C   0  0  0  0  0  0  0  0  0  0  0  0
    3.4945   -6.8387    2.9361 C   0  0  0  0  0  0  0  0  0  0  0  0
    5.0071   -4.8269    3.2441 C   0  0  0  0  0  0  0  0  0  0  0  0
    0.8551   -5.6063    5.1315 H   0  0  0  0  0  0  0  0  0  0  0  0
   -0.8385   -6.0837    4.8653 H   0  0  0  0  0  0  0  0  0  0  0  0
    0.1929   -5.6469    3.4814 H   0  0  0  0  0  0  0  0  0  0  0  0
   -1.3951   -3.7651    4.0708 H   0  0  0  0  0  0  0  0  0  0  0  0
   -0.7244   -3.7050    5.7052 H   0  0  0  0  0  0  0  0  0  0  0  0
    1.5225   -3.0863    4.7589 H   0  0  0  0  0  0  0  0  0  0  0  0
    0.2353   -1.9142    4.3639 H   0  0  0  0  0  0  0  0  0  0  0  0
    1.9335    0.9152    2.1797 H   0  0  0  0  0  0  0  0  0  0  0  0
    1.2596    0.0717    3.5700 H   0  0  0  0  0  0  0  0  0  0  0  0
   -0.5383   -0.9233    2.0971 H   0  0  0  0  0  0  0  0  0  0  0  0
   -0.5998    0.8467    2.2002 H   0  0  0  0  0  0  0  0  0  0  0  0
    0.5603    1.2233   -0.1508 H   0  0  0  0  0  0  0  0  0  0  0  0
    4.0595   -0.4015    1.0738 H   0  0  0  0  0  0  0  0  0  0  0  0
    1.9999   -5.1297    1.5020 H   0  0  0  0  0  0  0  0  0  0  0  0
    3.6438   -4.9730    0.8293 H   0  0  0  0  0  0  0  0  0  0  0  0
    2.9359   -4.9611    3.8094 H   0  0  0  0  0  0  0  0  0  0  0  0
    2.4559   -7.1825    2.8031 H   0  0  0  0  0  0  0  0  0  0  0  0
    3.8810   -7.2850    3.8655 H   0  0  0  0  0  0  0  0  0  0  0  0
    4.0924   -7.2409    2.1006 H   0  0  0  0  0  0  0  0  0  0  0  0
    5.3798   -5.2054    4.2093 H   0  0  0  0  0  0  0  0  0  0  0  0
    5.6894   -5.1832    2.4543 H   0  0  0  0  0  0  0  0  0  0  0  0
    5.0658   -3.7290    3.2536 H   0  0  0  0  0  0  0  0  0  0  0  0
  1  2  1  0  0  0  0
  1 18  1  0  0  0  0
  1 17  1  0  0  0  0
  2 21  1  0  0  0  0
  3 23  1  0  0  0  0
  3  2  1  0  0  0  0
  3 22  1  0  0  0  0
  4  3  1  0  0  0  0
  5  4  1  0  0  0  0
  6  5  2  0  0  0  0
  6  7  1  0  0  0  0
  7 25  1  0  0  0  0
  8 26  1  0  0  0  0
  8 27  1  0  0  0  0
  8  7  1  0  0  0  0
  9  8  1  0  0  0  0
 10  6  1  0  0  0  0
 11 10  2  0  0  0  0
 11 12  1  0  0  0  0
 12  5  1  0  0  0  0
 13 12  1  0  0  0  0
 13 14  1  0  0  0  0
 14 16  1  0  0  0  0
 14 32  1  0  0  0  0
 15 14  1  0  0  0  0
 15 34  1  0  0  0  0
 16 38  1  0  0  0  0
 16 36  1  0  0  0  0
 19  1  1  0  0  0  0
 20  2  1  0  0  0  0
 24  7  1  0  0  0  0
 28  9  1  0  0  0  0
 29 10  1  0  0  0  0
 30 13  1  0  0  0  0
 31 13  1  0  0  0  0
 33 15  1  0  0  0  0
 35 15  1  0  0  0  0
 37 16  1  0  0  0  0
M  END
