317581934.xyz
 OpenBabel08132112123D
BrCC(=O)c1ccc(c(c1S)I)I
 18 18  0  0  0  0  0  0  0  0999 V2000
    4.0704   -1.7447    3.7236 Br  0  0  0  0  0  0  0  0  0  0  0  0
    3.7607    0.0376    2.9514 C   0  0  0  0  0  0  0  0  0  0  0  0
    2.5643    0.0241    2.0031 C   0  0  0  0  0  0  0  0  0  0  0  0
    2.8331    0.0507    0.8079 O   0  0  0  0  0  0  0  0  0  0  0  0
    1.1873    0.0000    2.5625 C   0  0  0  0  0  0  0  0  0  0  0  0
    1.0485   -0.0105    3.9665 C   0  0  0  0  0  0  0  0  0  0  0  0
   -0.1842   -0.0148    4.5901 C   0  0  0  0  0  0  0  0  0  0  0  0
   -1.3508   -0.0076    3.8105 C   0  0  0  0  0  0  0  0  0  0  0  0
   -1.2663   -0.0017    2.4142 C   0  0  0  0  0  0  0  0  0  0  0  0
    0.0000    0.0000    1.7600 C   0  0  0  0  0  0  0  0  0  0  0  0
    0.0000    0.0000    0.0000 S   0  0  0  0  0  0  0  0  0  0  0  0
   -3.0279    0.0040    1.2242 I   0  0  0  0  0  0  0  0  0  0  0  0
   -3.1782   -0.0095    4.8846 I   0  0  0  0  0  0  0  0  0  0  0  0
    4.6479    0.2731    2.3565 H   0  0  0  0  0  0  0  0  0  0  0  0
    3.6602    0.7380    3.7875 H   0  0  0  0  0  0  0  0  0  0  0  0
    1.9326   -0.0389    4.5996 H   0  0  0  0  0  0  0  0  0  0  0  0
   -0.2506   -0.0273    5.6776 H   0  0  0  0  0  0  0  0  0  0  0  0
    1.3636    0.0119   -0.0841 H   0  0  0  0  0  0  0  0  0  0  0  0
  2  1  1  0  0  0  0
  2 15  1  0  0  0  0
  3  5  1  0  0  0  0
  3  2  1  0  0  0  0
  4  3  2  0  0  0  0
  5  6  2  0  0  0  0
  6  7  1  0  0  0  0
  6 16  1  0  0  0  0
  7 17  1  0  0  0  0
  8  7  2  0  0  0  0
  8 13  1  0  0  0  0
  9  8  1  0  0  0  0
 10  9  2  0  0  0  0
 10  5  1  0  0  0  0
 11 10  1  0  0  0  0
 12  9  1  0  0  0  0
 14  2  1  0  0  0  0
 18 11  1  0  0  0  0
M  END
