317581838.xyz
 OpenBabel08132112123D
CCc1c(CBr)ccc(c1S)Br
 22 22  0  0  0  0  0  0  0  0999 V2000
    2.9884   -1.4254    1.2251 C   0  0  0  0  0  0  0  0  0  0  0  0
    2.5317   -0.0094    1.6074 C   0  0  0  0  0  0  0  0  0  0  0  0
    1.2604   -0.0000    2.4284 C   0  0  0  0  0  0  0  0  0  0  0  0
    1.3143   -0.0297    3.8369 C   0  0  0  0  0  0  0  0  0  0  0  0
    2.6176   -0.0583    4.5693 C   0  0  0  0  0  0  0  0  0  0  0  0
    3.4067    1.7615    4.7793 Br  0  0  0  0  0  0  0  0  0  0  0  0
    0.1304   -0.0258    4.5871 C   0  0  0  0  0  0  0  0  0  0  0  0
   -1.1077   -0.0120    3.9574 C   0  0  0  0  0  0  0  0  0  0  0  0
   -1.1706   -0.0031    2.5636 C   0  0  0  0  0  0  0  0  0  0  0  0
    0.0000   -0.0000    1.7786 C   0  0  0  0  0  0  0  0  0  0  0  0
    0.0000    0.0000    0.0000 S   0  0  0  0  0  0  0  0  0  0  0  0
   -2.9176    0.0076    1.7842 Br  0  0  0  0  0  0  0  0  0  0  0  0
    2.2147   -1.9457    0.6410 H   0  0  0  0  0  0  0  0  0  0  0  0
    3.9068   -1.3892    0.6187 H   0  0  0  0  0  0  0  0  0  0  0  0
    3.1955   -2.0336    2.1199 H   0  0  0  0  0  0  0  0  0  0  0  0
    2.3753    0.5831    0.6921 H   0  0  0  0  0  0  0  0  0  0  0  0
    3.3288    0.5110    2.1566 H   0  0  0  0  0  0  0  0  0  0  0  0
    3.3947   -0.6396    4.0646 H   0  0  0  0  0  0  0  0  0  0  0  0
    2.4964   -0.4253    5.5937 H   0  0  0  0  0  0  0  0  0  0  0  0
    0.1811   -0.0333    5.6781 H   0  0  0  0  0  0  0  0  0  0  0  0
   -2.0296   -0.0113    4.5398 H   0  0  0  0  0  0  0  0  0  0  0  0
   -1.3440    0.0239   -0.1374 H   0  0  0  0  0  0  0  0  0  0  0  0
  1  2  1  0  0  0  0
  1 15  1  0  0  0  0
  2 17  1  0  0  0  0
  2  3  1  0  0  0  0
  3  4  1  0  0  0  0
  4  5  1  0  0  0  0
  4  7  2  0  0  0  0
  5  6  1  0  0  0  0
  5 19  1  0  0  0  0
  7 20  1  0  0  0  0
  8 21  1  0  0  0  0
  8  7  1  0  0  0  0
  9  8  2  0  0  0  0
 10  3  2  0  0  0  0
 10  9  1  0  0  0  0
 11 10  1  0  0  0  0
 12  9  1  0  0  0  0
 13  1  1  0  0  0  0
 14  1  1  0  0  0  0
 16  2  1  0  0  0  0
 18  5  1  0  0  0  0
 22 11  1  0  0  0  0
M  END
