317524698.xyz
 OpenBabel08132112113D
BrCC(=O)c1c(I)ccc(c1CC)S
 24 24  0  0  0  0  0  0  0  0999 V2000
    3.0673   -2.7848    4.2435 Br  0  0  0  0  0  0  0  0  0  0  0  0
    2.6830   -1.3562    5.5398 C   0  0  0  0  0  0  0  0  0  0  0  0
    2.3116   -0.0680    4.8159 C   0  0  0  0  0  0  0  0  0  0  0  0
    3.0325    0.9000    4.8869 O   0  0  0  0  0  0  0  0  0  0  0  0
    1.0533   -0.0682    3.9746 C   0  0  0  0  0  0  0  0  0  0  0  0
   -0.2166   -0.1251    4.5659 C   0  0  0  0  0  0  0  0  0  0  0  0
   -0.4695   -0.0595    6.6858 I   0  0  0  0  0  0  0  0  0  0  0  0
   -1.3740   -0.1371    3.7873 C   0  0  0  0  0  0  0  0  0  0  0  0
   -1.2577   -0.0775    2.4021 C   0  0  0  0  0  0  0  0  0  0  0  0
    0.0000   -0.0000    1.7888 C   0  0  0  0  0  0  0  0  0  0  0  0
    1.1788   -0.0000    2.5671 C   0  0  0  0  0  0  0  0  0  0  0  0
    2.5379    0.1039    1.9146 C   0  0  0  0  0  0  0  0  0  0  0  0
    2.9771    1.5580    1.6878 C   0  0  0  0  0  0  0  0  0  0  0  0
    0.0000    0.0000    0.0000 S   0  0  0  0  0  0  0  0  0  0  0  0
    3.5912   -1.1889    6.1286 H   0  0  0  0  0  0  0  0  0  0  0  0
    1.8671   -1.7336    6.1651 H   0  0  0  0  0  0  0  0  0  0  0  0
   -2.3588   -0.1685    4.2546 H   0  0  0  0  0  0  0  0  0  0  0  0
   -2.1577   -0.0671    1.7840 H   0  0  0  0  0  0  0  0  0  0  0  0
    3.2917   -0.4092    2.5264 H   0  0  0  0  0  0  0  0  0  0  0  0
    2.5018   -0.4381    0.9568 H   0  0  0  0  0  0  0  0  0  0  0  0
    3.0820    2.0740    2.6524 H   0  0  0  0  0  0  0  0  0  0  0  0
    2.2437    2.1197    1.0859 H   0  0  0  0  0  0  0  0  0  0  0  0
    3.9447    1.5954    1.1635 H   0  0  0  0  0  0  0  0  0  0  0  0
    0.9704    0.9203   -0.1891 H   0  0  0  0  0  0  0  0  0  0  0  0
  1  2  1  0  0  0  0
  2 15  1  0  0  0  0
  2 16  1  0  0  0  0
  3  4  2  0  0  0  0
  3  2  1  0  0  0  0
  5  6  1  0  0  0  0
  5  3  1  0  0  0  0
  6  7  1  0  0  0  0
  8 17  1  0  0  0  0
  8  6  2  0  0  0  0
  9  8  1  0  0  0  0
 10  9  2  0  0  0  0
 10 11  1  0  0  0  0
 11  5  2  0  0  0  0
 12 19  1  0  0  0  0
 12 11  1  0  0  0  0
 13 12  1  0  0  0  0
 13 21  1  0  0  0  0
 14 10  1  0  0  0  0
 18  9  1  0  0  0  0
 20 12  1  0  0  0  0
 22 13  1  0  0  0  0
 23 13  1  0  0  0  0
 24 14  1  0  0  0  0
M  END
