317543341.xyz
 OpenBabel08132112113D
CCOC(=O)c1cc(OC(F)(F)F)c(c(c1)CC)S
 32 32  0  0  0  0  0  0  0  0999 V2000
   -1.0518   -1.3712    8.6359 C   0  0  0  0  0  0  0  0  0  0  0  0
   -1.1737    0.0375    8.0824 C   0  0  0  0  0  0  0  0  0  0  0  0
   -1.1207    0.0467    6.6453 O   0  0  0  0  0  0  0  0  0  0  0  0
    0.0979    0.0221    6.0745 C   0  0  0  0  0  0  0  0  0  0  0  0
    1.1333    0.0124    6.7017 O   0  0  0  0  0  0  0  0  0  0  0  0
    0.0225    0.0102    4.5872 C   0  0  0  0  0  0  0  0  0  0  0  0
   -1.1986    0.0173    3.9041 C   0  0  0  0  0  0  0  0  0  0  0  0
   -1.1946   -0.0022    2.5161 C   0  0  0  0  0  0  0  0  0  0  0  0
   -2.4060    0.0397    1.8175 O   0  0  0  0  0  0  0  0  0  0  0  0
   -3.1905   -1.0655    1.8192 C   0  0  0  0  0  0  0  0  0  0  0  0
   -3.7505   -1.2900    3.0170 F   0  0  0  0  0  0  0  0  0  0  0  0
   -4.1587   -0.8702    0.9334 F   0  0  0  0  0  0  0  0  0  0  0  0
   -2.5110   -2.1675    1.4845 F   0  0  0  0  0  0  0  0  0  0  0  0
    0.0000   -0.0000    1.7718 C   0  0  0  0  0  0  0  0  0  0  0  0
    1.2346    0.0000    2.4634 C   0  0  0  0  0  0  0  0  0  0  0  0
    1.2182   -0.0008    3.8592 C   0  0  0  0  0  0  0  0  0  0  0  0
    2.5482   -0.0468    1.7194 C   0  0  0  0  0  0  0  0  0  0  0  0
    2.9398   -1.4675    1.2865 C   0  0  0  0  0  0  0  0  0  0  0  0
    0.0000    0.0000    0.0000 S   0  0  0  0  0  0  0  0  0  0  0  0
   -1.8265   -2.0277    8.2106 H   0  0  0  0  0  0  0  0  0  0  0  0
   -1.1741   -1.3558    9.7306 H   0  0  0  0  0  0  0  0  0  0  0  0
   -0.0624   -1.7927    8.4068 H   0  0  0  0  0  0  0  0  0  0  0  0
   -0.3730    0.6836    8.4713 H   0  0  0  0  0  0  0  0  0  0  0  0
   -2.1483    0.4830    8.3271 H   0  0  0  0  0  0  0  0  0  0  0  0
   -2.1406    0.0343    4.4480 H   0  0  0  0  0  0  0  0  0  0  0  0
    2.1578   -0.0011    4.4151 H   0  0  0  0  0  0  0  0  0  0  0  0
    3.3351    0.3694    2.3674 H   0  0  0  0  0  0  0  0  0  0  0  0
    2.4929    0.6086    0.8338 H   0  0  0  0  0  0  0  0  0  0  0  0
    3.8957   -1.4604    0.7399 H   0  0  0  0  0  0  0  0  0  0  0  0
    3.0503   -2.1255    2.1625 H   0  0  0  0  0  0  0  0  0  0  0  0
    2.1766   -1.9101    0.6283 H   0  0  0  0  0  0  0  0  0  0  0  0
   -1.3256    0.2168   -0.1345 H   0  0  0  0  0  0  0  0  0  0  0  0
  1 21  1  0  0  0  0
  2 24  1  0  0  0  0
  2 23  1  0  0  0  0
  2  1  1  0  0  0  0
  3  2  1  0  0  0  0
  4  3  1  0  0  0  0
  4  5  2  0  0  0  0
  6  4  1  0  0  0  0
  7 25  1  0  0  0  0
  7  6  1  0  0  0  0
  8  7  2  0  0  0  0
  9 10  1  0  0  0  0
  9  8  1  0  0  0  0
 10 11  1  0  0  0  0
 12 10  1  0  0  0  0
 13 10  1  0  0  0  0
 14 15  2  0  0  0  0
 14  8  1  0  0  0  0
 15 16  1  0  0  0  0
 16 26  1  0  0  0  0
 16  6  2  0  0  0  0
 17 27  1  0  0  0  0
 17 15  1  0  0  0  0
 18 17  1  0  0  0  0
 18 30  1  0  0  0  0
 19 14  1  0  0  0  0
 20  1  1  0  0  0  0
 22  1  1  0  0  0  0
 28 17  1  0  0  0  0
 29 18  1  0  0  0  0
 31 18  1  0  0  0  0
 32 19  1  0  0  0  0
M  END
