317641982.xyz
 OpenBabel08132112123D
COc1cc(OC(F)F)c(cc1F)S
 21 21  0  0  0  0  0  0  0  0999 V2000
   -0.9469    0.1622    6.7579 C   0  0  0  0  0  0  0  0  0  0  0  0
    0.2140    0.1238    5.9568 O   0  0  0  0  0  0  0  0  0  0  0  0
    0.0680    0.0855    4.6165 C   0  0  0  0  0  0  0  0  0  0  0  0
   -1.1509    0.0728    3.9325 C   0  0  0  0  0  0  0  0  0  0  0  0
   -1.1762    0.0383    2.5340 C   0  0  0  0  0  0  0  0  0  0  0  0
   -2.3997    0.0036    1.8793 O   0  0  0  0  0  0  0  0  0  0  0  0
   -3.0555    1.2022    1.7668 C   0  0  0  0  0  0  0  0  0  0  0  0
   -3.9582    1.0684    0.7883 F   0  0  0  0  0  0  0  0  0  0  0  0
   -3.7262    1.4831    2.9135 F   0  0  0  0  0  0  0  0  0  0  0  0
    0.0000   -0.0000    1.7766 C   0  0  0  0  0  0  0  0  0  0  0  0
    1.2250   -0.0000    2.4667 C   0  0  0  0  0  0  0  0  0  0  0  0
    1.2516    0.0492    3.8497 C   0  0  0  0  0  0  0  0  0  0  0  0
    2.4243    0.0513    4.4892 F   0  0  0  0  0  0  0  0  0  0  0  0
    0.0000    0.0000    0.0000 S   0  0  0  0  0  0  0  0  0  0  0  0
   -1.5553    1.0604    6.5498 H   0  0  0  0  0  0  0  0  0  0  0  0
   -0.6057    0.1928    7.8005 H   0  0  0  0  0  0  0  0  0  0  0  0
   -1.5737   -0.7351    6.6091 H   0  0  0  0  0  0  0  0  0  0  0  0
   -2.1027    0.0920    4.4589 H   0  0  0  0  0  0  0  0  0  0  0  0
   -2.3726    2.0424    1.5492 H   0  0  0  0  0  0  0  0  0  0  0  0
    2.1736   -0.0427    1.9290 H   0  0  0  0  0  0  0  0  0  0  0  0
   -1.2813   -0.4091   -0.1327 H   0  0  0  0  0  0  0  0  0  0  0  0
  1 16  1  0  0  0  0
  2  1  1  0  0  0  0
  3  2  1  0  0  0  0
  4 18  1  0  0  0  0
  4  3  1  0  0  0  0
  5  4  2  0  0  0  0
  6  5  1  0  0  0  0
  7  6  1  0  0  0  0
  7  9  1  0  0  0  0
  8  7  1  0  0  0  0
 10 11  2  0  0  0  0
 10  5  1  0  0  0  0
 11 12  1  0  0  0  0
 12 13  1  0  0  0  0
 12  3  2  0  0  0  0
 14 10  1  0  0  0  0
 15  1  1  0  0  0  0
 17  1  1  0  0  0  0
 19  7  1  0  0  0  0
 20 11  1  0  0  0  0
 21 14  1  0  0  0  0
M  END
