317638138.xyz
 OpenBabel08132112123D
FC(Oc1ccc(c(c1C(=O)N)S)F)F
 21 21  0  0  0  0  0  0  0  0999 V2000
   -1.5128    1.2653    6.6972 F   0  0  0  0  0  0  0  0  0  0  0  0
   -2.2558    1.1612    5.5722 C   0  0  0  0  0  0  0  0  0  0  0  0
   -1.9635   -0.0072    4.9107 O   0  0  0  0  0  0  0  0  0  0  0  0
   -0.8891    0.0152    4.0223 C   0  0  0  0  0  0  0  0  0  0  0  0
    0.3884    0.0350    4.5685 C   0  0  0  0  0  0  0  0  0  0  0  0
    1.4930    0.0236    3.7162 C   0  0  0  0  0  0  0  0  0  0  0  0
    1.2825   -0.0000    2.3506 C   0  0  0  0  0  0  0  0  0  0  0  0
   -0.0000   -0.0000    1.7641 C   0  0  0  0  0  0  0  0  0  0  0  0
   -1.1349   -0.0109    2.6270 C   0  0  0  0  0  0  0  0  0  0  0  0
   -2.5359   -0.0501    2.0521 C   0  0  0  0  0  0  0  0  0  0  0  0
   -2.7826    0.3113    0.9003 O   0  0  0  0  0  0  0  0  0  0  0  0
   -3.5280   -0.5348    2.8339 N   0  0  0  0  0  0  0  0  0  0  0  0
    0.0000    0.0000    0.0000 S   0  0  0  0  0  0  0  0  0  0  0  0
    2.3429   -0.0130    1.5344 F   0  0  0  0  0  0  0  0  0  0  0  0
   -3.5431    1.0887    5.9373 F   0  0  0  0  0  0  0  0  0  0  0  0
   -2.0812    2.0551    4.9482 H   0  0  0  0  0  0  0  0  0  0  0  0
    0.5037    0.0483    5.6515 H   0  0  0  0  0  0  0  0  0  0  0  0
    2.5153    0.0320    4.0973 H   0  0  0  0  0  0  0  0  0  0  0  0
   -3.3923   -0.7387    3.8154 H   0  0  0  0  0  0  0  0  0  0  0  0
   -4.4577   -0.5365    2.4311 H   0  0  0  0  0  0  0  0  0  0  0  0
   -1.3507    0.2110   -0.0579 H   0  0  0  0  0  0  0  0  0  0  0  0
  2 15  1  0  0  0  0
  2  1  1  0  0  0  0
  3  2  1  0  0  0  0
  4  5  1  0  0  0  0
  4  3  1  0  0  0  0
  5 17  1  0  0  0  0
  6 18  1  0  0  0  0
  6  5  2  0  0  0  0
  7  6  1  0  0  0  0
  8  7  2  0  0  0  0
  8  9  1  0  0  0  0
  9  4  2  0  0  0  0
 10  9  1  0  0  0  0
 10 12  1  0  0  0  0
 11 10  2  0  0  0  0
 12 19  1  0  0  0  0
 13  8  1  0  0  0  0
 14  7  1  0  0  0  0
 16  2  1  0  0  0  0
 20 12  1  0  0  0  0
 21 13  1  0  0  0  0
M  END
