317686387.xyz
 OpenBabel08132112123D
NC(=O)c1cc(C)c(cc1[N+](=O)[O-])S
 22 22  0  0  0  0  0  0  0  0999 V2000
    0.2677    0.6499    6.8503 N   0  0  0  0  0  0  0  0  0  0  0  0
   -0.2185   -0.3779    6.0965 C   0  0  0  0  0  0  0  0  0  0  0  0
   -0.5505   -1.4548    6.5443 O   0  0  0  0  0  0  0  0  0  0  0  0
   -0.1788   -0.1307    4.6014 C   0  0  0  0  0  0  0  0  0  0  0  0
    1.0573   -0.0559    3.9534 C   0  0  0  0  0  0  0  0  0  0  0  0
    1.1822   -0.0000    2.5576 C   0  0  0  0  0  0  0  0  0  0  0  0
    2.5426    0.0416    1.9213 C   0  0  0  0  0  0  0  0  0  0  0  0
    0.0000   -0.0000    1.7814 C   0  0  0  0  0  0  0  0  0  0  0  0
   -1.2487   -0.0603    2.4108 C   0  0  0  0  0  0  0  0  0  0  0  0
   -1.3226   -0.1227    3.7975 C   0  0  0  0  0  0  0  0  0  0  0  0
   -2.6623   -0.0941    4.4114 N   0  0  0  0  0  0  0  0  0  0  0  0
   -2.7460    0.3631    5.5402 O   0  0  0  0  0  0  0  0  0  0  0  0
   -3.5991   -0.4941    3.7425 O   0  0  0  0  0  0  0  0  0  0  0  0
    0.0000    0.0000    0.0000 S   0  0  0  0  0  0  0  0  0  0  0  0
    0.2872    1.5875    6.4690 H   0  0  0  0  0  0  0  0  0  0  0  0
    0.1832    0.5550    7.8573 H   0  0  0  0  0  0  0  0  0  0  0  0
    1.9643   -0.0754    4.5623 H   0  0  0  0  0  0  0  0  0  0  0  0
    3.3354   -0.1019    2.6677 H   0  0  0  0  0  0  0  0  0  0  0  0
    2.7263    1.0097    1.4223 H   0  0  0  0  0  0  0  0  0  0  0  0
    2.6376   -0.7395    1.1498 H   0  0  0  0  0  0  0  0  0  0  0  0
   -2.1736   -0.0415    1.8349 H   0  0  0  0  0  0  0  0  0  0  0  0
    1.1082    0.7520   -0.1775 H   0  0  0  0  0  0  0  0  0  0  0  0
  1 16  1  0  0  0  0
  2  3  2  0  0  0  0
  2  1  1  0  0  0  0
  4  2  1  0  0  0  0
  5 17  1  0  0  0  0
  5  4  1  0  0  0  0
  6  5  2  0  0  0  0
  7  6  1  0  0  0  0
  7 18  1  0  0  0  0
  8  9  2  0  0  0  0
  8  6  1  0  0  0  0
  9 10  1  0  0  0  0
 10 11  1  0  0  0  0
 10  4  2  0  0  0  0
 11 12  2  0  0  0  0
 13 11  2  0  0  0  0
 14  8  1  0  0  0  0
 15  1  1  0  0  0  0
 19  7  1  0  0  0  0
 20  7  1  0  0  0  0
 21  9  1  0  0  0  0
 22 14  1  0  0  0  0
M  END
