317683315.xyz
 OpenBabel08132112123D
N#CCc1cc(cc(c1OC)S)OC(F)(F)F
 25 25  0  0  0  0  0  0  0  0999 V2000
    3.7122   -2.2518    4.8541 N   0  0  0  0  0  0  0  0  0  0  0  0
    3.2703   -1.1919    4.7021 C   0  0  0  0  0  0  0  0  0  0  0  0
    2.6950    0.1381    4.4779 C   0  0  0  0  0  0  0  0  0  0  0  0
    1.3323    0.0848    3.8119 C   0  0  0  0  0  0  0  0  0  0  0  0
    0.1646    0.1231    4.5818 C   0  0  0  0  0  0  0  0  0  0  0  0
   -1.0708    0.1026    3.9362 C   0  0  0  0  0  0  0  0  0  0  0  0
   -1.1651    0.0517    2.5474 C   0  0  0  0  0  0  0  0  0  0  0  0
    0.0000   -0.0000    1.7749 C   0  0  0  0  0  0  0  0  0  0  0  0
    1.2563   -0.0000    2.4143 C   0  0  0  0  0  0  0  0  0  0  0  0
    2.3996   -0.0182    1.6660 O   0  0  0  0  0  0  0  0  0  0  0  0
    2.8663   -1.3097    1.2577 C   0  0  0  0  0  0  0  0  0  0  0  0
    0.0000    0.0000    0.0000 S   0  0  0  0  0  0  0  0  0  0  0  0
   -2.2840    0.1014    4.6190 O   0  0  0  0  0  0  0  0  0  0  0  0
   -2.4682    0.8869    5.7022 C   0  0  0  0  0  0  0  0  0  0  0  0
   -1.8092    0.4324    6.7846 F   0  0  0  0  0  0  0  0  0  0  0  0
   -2.0618    2.1446    5.4928 F   0  0  0  0  0  0  0  0  0  0  0  0
   -3.7627    0.8917    5.9834 F   0  0  0  0  0  0  0  0  0  0  0  0
    2.6241    0.6529    5.4481 H   0  0  0  0  0  0  0  0  0  0  0  0
    3.3934    0.7063    3.8444 H   0  0  0  0  0  0  0  0  0  0  0  0
    0.2252    0.1642    5.6682 H   0  0  0  0  0  0  0  0  0  0  0  0
   -2.1547    0.0654    2.0894 H   0  0  0  0  0  0  0  0  0  0  0  0
    3.1296   -1.9307    2.1281 H   0  0  0  0  0  0  0  0  0  0  0  0
    2.1083   -1.8295    0.6500 H   0  0  0  0  0  0  0  0  0  0  0  0
    3.7620   -1.1366    0.6471 H   0  0  0  0  0  0  0  0  0  0  0  0
   -1.3365   -0.1514   -0.1336 H   0  0  0  0  0  0  0  0  0  0  0  0
  2  1  3  0  0  0  0
  3  2  1  0  0  0  0
  3 18  1  0  0  0  0
  4  3  1  0  0  0  0
  4  5  2  0  0  0  0
  5 20  1  0  0  0  0
  6  5  1  0  0  0  0
  6 13  1  0  0  0  0
  7  6  2  0  0  0  0
  8  9  2  0  0  0  0
  8  7  1  0  0  0  0
  9  4  1  0  0  0  0
 10  9  1  0  0  0  0
 11 10  1  0  0  0  0
 11 22  1  0  0  0  0
 12  8  1  0  0  0  0
 13 14  1  0  0  0  0
 14 17  1  0  0  0  0
 14 15  1  0  0  0  0
 16 14  1  0  0  0  0
 19  3  1  0  0  0  0
 21  7  1  0  0  0  0
 23 11  1  0  0  0  0
 24 11  1  0  0  0  0
 25 12  1  0  0  0  0
M  END
