317643494.xyz
 OpenBabel08132112123D
CCc1ccc(c(c1OC(F)(F)F)OC(F)F)S
 27 27  0  0  0  0  0  0  0  0999 V2000
   -0.2066    1.5926    6.6110 C   0  0  0  0  0  0  0  0  0  0  0  0
    0.1431    0.1776    6.1289 C   0  0  0  0  0  0  0  0  0  0  0  0
    0.0877    0.0463    4.6255 C   0  0  0  0  0  0  0  0  0  0  0  0
    1.2567    0.0360    3.8498 C   0  0  0  0  0  0  0  0  0  0  0  0
    1.2222    0.0000    2.4585 C   0  0  0  0  0  0  0  0  0  0  0  0
   -0.0000    0.0000    1.7699 C   0  0  0  0  0  0  0  0  0  0  0  0
   -1.1835    0.0084    2.5264 C   0  0  0  0  0  0  0  0  0  0  0  0
   -1.1263    0.0052    3.9280 C   0  0  0  0  0  0  0  0  0  0  0  0
   -2.3359    0.0679    4.6249 O   0  0  0  0  0  0  0  0  0  0  0  0
   -2.9899   -1.0880    4.9221 C   0  0  0  0  0  0  0  0  0  0  0  0
   -3.2102   -1.8466    3.8492 F   0  0  0  0  0  0  0  0  0  0  0  0
   -2.2999   -1.8402    5.7966 F   0  0  0  0  0  0  0  0  0  0  0  0
   -4.1474   -0.7585    5.4722 F   0  0  0  0  0  0  0  0  0  0  0  0
   -2.3944   -0.0218    1.8733 O   0  0  0  0  0  0  0  0  0  0  0  0
   -3.2491    1.0494    2.0028 C   0  0  0  0  0  0  0  0  0  0  0  0
   -3.4156    1.6101    0.7858 F   0  0  0  0  0  0  0  0  0  0  0  0
   -4.4478    0.6007    2.4042 F   0  0  0  0  0  0  0  0  0  0  0  0
    0.0000    0.0000    0.0000 S   0  0  0  0  0  0  0  0  0  0  0  0
   -0.1373    1.6596    7.7080 H   0  0  0  0  0  0  0  0  0  0  0  0
    0.4788    2.3388    6.1791 H   0  0  0  0  0  0  0  0  0  0  0  0
   -1.2322    1.8642    6.3188 H   0  0  0  0  0  0  0  0  0  0  0  0
   -0.5375   -0.5478    6.5955 H   0  0  0  0  0  0  0  0  0  0  0  0
    1.1590   -0.0868    6.4615 H   0  0  0  0  0  0  0  0  0  0  0  0
    2.2232    0.0602    4.3585 H   0  0  0  0  0  0  0  0  0  0  0  0
    2.1549   -0.0106    1.8907 H   0  0  0  0  0  0  0  0  0  0  0  0
   -2.8729    1.8085    2.7075 H   0  0  0  0  0  0  0  0  0  0  0  0
   -1.3436   -0.0062   -0.1376 H   0  0  0  0  0  0  0  0  0  0  0  0
  1 19  1  0  0  0  0
  2 23  1  0  0  0  0
  2 22  1  0  0  0  0
  2  1  1  0  0  0  0
  3  2  1  0  0  0  0
  4 24  1  0  0  0  0
  4  3  2  0  0  0  0
  5  4  1  0  0  0  0
  6  5  2  0  0  0  0
  6  7  1  0  0  0  0
  7  8  2  0  0  0  0
  8  9  1  0  0  0  0
  8  3  1  0  0  0  0
  9 10  1  0  0  0  0
 10 13  1  0  0  0  0
 10 12  1  0  0  0  0
 11 10  1  0  0  0  0
 14 15  1  0  0  0  0
 14  7  1  0  0  0  0
 15 17  1  0  0  0  0
 15 26  1  0  0  0  0
 16 15  1  0  0  0  0
 18  6  1  0  0  0  0
 20  1  1  0  0  0  0
 21  1  1  0  0  0  0
 25  5  1  0  0  0  0
 27 18  1  0  0  0  0
M  END
