317671514.xyz
 OpenBabel08132112123D
COc1cc(S)c(cc1C(F)F)C(=O)C
 25 25  0  0  0  0  0  0  0  0999 V2000
    3.8542   -0.0732    3.5365 C   0  0  0  0  0  0  0  0  0  0  0  0
    2.6832   -0.0085    4.3243 O   0  0  0  0  0  0  0  0  0  0  0  0
    1.4798    0.0085    3.7328 C   0  0  0  0  0  0  0  0  0  0  0  0
    1.2890    0.0000    2.3477 C   0  0  0  0  0  0  0  0  0  0  0  0
   -0.0000    0.0000    1.7867 C   0  0  0  0  0  0  0  0  0  0  0  0
    0.0000    0.0000    0.0000 S   0  0  0  0  0  0  0  0  0  0  0  0
   -1.1376    0.0044    2.6224 C   0  0  0  0  0  0  0  0  0  0  0  0
   -0.9101    0.0804    4.0133 C   0  0  0  0  0  0  0  0  0  0  0  0
    0.3496    0.0694    4.5843 C   0  0  0  0  0  0  0  0  0  0  0  0
    0.4970    0.1193    6.0791 C   0  0  0  0  0  0  0  0  0  0  0  0
    1.1431   -0.9832    6.5496 F   0  0  0  0  0  0  0  0  0  0  0  0
    1.2177    1.2060    6.4701 F   0  0  0  0  0  0  0  0  0  0  0  0
   -2.5886   -0.0855    2.2334 C   0  0  0  0  0  0  0  0  0  0  0  0
   -3.4398    0.2886    3.0194 O   0  0  0  0  0  0  0  0  0  0  0  0
   -3.0219   -0.7223    0.9246 C   0  0  0  0  0  0  0  0  0  0  0  0
    3.8704   -0.9826    2.9113 H   0  0  0  0  0  0  0  0  0  0  0  0
    4.6963   -0.1020    4.2389 H   0  0  0  0  0  0  0  0  0  0  0  0
    3.9542    0.8138    2.8873 H   0  0  0  0  0  0  0  0  0  0  0  0
    2.1455    0.0296    1.6761 H   0  0  0  0  0  0  0  0  0  0  0  0
   -1.1043    0.7515   -0.1873 H   0  0  0  0  0  0  0  0  0  0  0  0
   -1.7969    0.1300    4.6487 H   0  0  0  0  0  0  0  0  0  0  0  0
   -0.4905    0.1709    6.5704 H   0  0  0  0  0  0  0  0  0  0  0  0
   -3.1758    0.0549    0.1575 H   0  0  0  0  0  0  0  0  0  0  0  0
   -2.2997   -1.4479    0.5293 H   0  0  0  0  0  0  0  0  0  0  0  0
   -3.9971   -1.1958    1.1031 H   0  0  0  0  0  0  0  0  0  0  0  0
  1 17  1  0  0  0  0
  1  2  1  0  0  0  0
  3  2  1  0  0  0  0
  3  9  2  0  0  0  0
  4  3  1  0  0  0  0
  5  4  2  0  0  0  0
  5  7  1  0  0  0  0
  6  5  1  0  0  0  0
  7  8  2  0  0  0  0
  8  9  1  0  0  0  0
  8 21  1  0  0  0  0
  9 10  1  0  0  0  0
 10 12  1  0  0  0  0
 10 11  1  0  0  0  0
 10 22  1  0  0  0  0
 13  7  1  0  0  0  0
 13 14  2  0  0  0  0
 15 25  1  0  0  0  0
 15 13  1  0  0  0  0
 16  1  1  0  0  0  0
 18  1  1  0  0  0  0
 19  4  1  0  0  0  0
 20  6  1  0  0  0  0
 23 15  1  0  0  0  0
 24 15  1  0  0  0  0
M  END
