317659487.xyz
 OpenBabel08132112123D
FC(c1cc(C)c(c(c1)I)S)F
 19 19  0  0  0  0  0  0  0  0999 V2000
    0.7628    0.5007    6.6805 F   0  0  0  0  0  0  0  0  0  0  0  0
   -0.3304   -0.0547    6.0901 C   0  0  0  0  0  0  0  0  0  0  0  0
   -0.2107   -0.0033    4.5882 C   0  0  0  0  0  0  0  0  0  0  0  0
   -1.3573    0.0003    3.7891 C   0  0  0  0  0  0  0  0  0  0  0  0
   -1.2763    0.0025    2.3965 C   0  0  0  0  0  0  0  0  0  0  0  0
   -2.5283    0.0132    1.5606 C   0  0  0  0  0  0  0  0  0  0  0  0
   -0.0000    0.0000    1.7722 C   0  0  0  0  0  0  0  0  0  0  0  0
    1.1464   -0.0000    2.5910 C   0  0  0  0  0  0  0  0  0  0  0  0
    1.0459   -0.0008    3.9841 C   0  0  0  0  0  0  0  0  0  0  0  0
    3.1249    0.0097    1.7922 I   0  0  0  0  0  0  0  0  0  0  0  0
    0.0000    0.0000    0.0000 S   0  0  0  0  0  0  0  0  0  0  0  0
   -1.4309    0.6321    6.5051 F   0  0  0  0  0  0  0  0  0  0  0  0
   -0.4240   -1.0871    6.4755 H   0  0  0  0  0  0  0  0  0  0  0  0
   -2.3407    0.0142    4.2625 H   0  0  0  0  0  0  0  0  0  0  0  0
   -2.5748   -0.8693    0.9003 H   0  0  0  0  0  0  0  0  0  0  0  0
   -3.4257    0.0168    2.1943 H   0  0  0  0  0  0  0  0  0  0  0  0
   -2.5636    0.9009    0.9068 H   0  0  0  0  0  0  0  0  0  0  0  0
    1.9436    0.0109    4.6013 H   0  0  0  0  0  0  0  0  0  0  0  0
    1.3452    0.0012   -0.1468 H   0  0  0  0  0  0  0  0  0  0  0  0
  2 13  1  0  0  0  0
  2 12  1  0  0  0  0
  2  1  1  0  0  0  0
  3  2  1  0  0  0  0
  4 14  1  0  0  0  0
  4  3  2  0  0  0  0
  5  4  1  0  0  0  0
  6 16  1  0  0  0  0
  6  5  1  0  0  0  0
  7  5  2  0  0  0  0
  7  8  1  0  0  0  0
  8  9  2  0  0  0  0
  9  3  1  0  0  0  0
  9 18  1  0  0  0  0
 10  8  1  0  0  0  0
 11  7  1  0  0  0  0
 15  6  1  0  0  0  0
 17  6  1  0  0  0  0
 19 11  1  0  0  0  0
M  END
