317644007.xyz
 OpenBabel08132112123D
CCc1c(ccc(c1OC(F)(F)F)S)OC(F)F
 27 27  0  0  0  0  0  0  0  0999 V2000
    2.6820    1.6118    5.2022 C   0  0  0  0  0  0  0  0  0  0  0  0
    2.4158    0.1605    4.7781 C   0  0  0  0  0  0  0  0  0  0  0  0
    1.1609    0.0344    3.9483 C   0  0  0  0  0  0  0  0  0  0  0  0
   -0.0992    0.0194    4.5720 C   0  0  0  0  0  0  0  0  0  0  0  0
   -1.2839   -0.0385    3.8364 C   0  0  0  0  0  0  0  0  0  0  0  0
   -1.2293   -0.0245    2.4437 C   0  0  0  0  0  0  0  0  0  0  0  0
   -0.0000    0.0000    1.7748 C   0  0  0  0  0  0  0  0  0  0  0  0
    1.1752    0.0000    2.5492 C   0  0  0  0  0  0  0  0  0  0  0  0
    2.4027    0.0713    1.8839 O   0  0  0  0  0  0  0  0  0  0  0  0
    3.0490   -1.0590    1.4952 C   0  0  0  0  0  0  0  0  0  0  0  0
    3.6171   -0.8291    0.3119 F   0  0  0  0  0  0  0  0  0  0  0  0
    4.0263   -1.3823    2.3556 F   0  0  0  0  0  0  0  0  0  0  0  0
    2.2388   -2.1108    1.3910 F   0  0  0  0  0  0  0  0  0  0  0  0
    0.0000    0.0000    0.0000 S   0  0  0  0  0  0  0  0  0  0  0  0
   -0.0900    0.0434    5.9532 O   0  0  0  0  0  0  0  0  0  0  0  0
   -1.0615    0.7497    6.6044 C   0  0  0  0  0  0  0  0  0  0  0  0
   -0.5875    1.0491    7.8191 F   0  0  0  0  0  0  0  0  0  0  0  0
   -2.1751   -0.0076    6.7737 F   0  0  0  0  0  0  0  0  0  0  0  0
    2.7939    2.2650    4.3229 H   0  0  0  0  0  0  0  0  0  0  0  0
    1.8580    2.0019    5.8186 H   0  0  0  0  0  0  0  0  0  0  0  0
    3.6065    1.6779    5.7965 H   0  0  0  0  0  0  0  0  0  0  0  0
    2.3078   -0.4672    5.6748 H   0  0  0  0  0  0  0  0  0  0  0  0
    3.2744   -0.2217    4.2153 H   0  0  0  0  0  0  0  0  0  0  0  0
   -2.2448   -0.0951    4.3475 H   0  0  0  0  0  0  0  0  0  0  0  0
   -2.1554   -0.0334    1.8656 H   0  0  0  0  0  0  0  0  0  0  0  0
    1.2635    0.4526   -0.1513 H   0  0  0  0  0  0  0  0  0  0  0  0
   -1.3468    1.6715    6.0654 H   0  0  0  0  0  0  0  0  0  0  0  0
  1 21  1  0  0  0  0
  1 20  1  0  0  0  0
  2  1  1  0  0  0  0
  2 22  1  0  0  0  0
  3  4  1  0  0  0  0
  3  2  1  0  0  0  0
  4 15  1  0  0  0  0
  5 24  1  0  0  0  0
  5  4  2  0  0  0  0
  6  5  1  0  0  0  0
  7  6  2  0  0  0  0
  7  8  1  0  0  0  0
  8  3  2  0  0  0  0
  9  8  1  0  0  0  0
 10  9  1  0  0  0  0
 10 12  1  0  0  0  0
 11 10  1  0  0  0  0
 13 10  1  0  0  0  0
 14  7  1  0  0  0  0
 15 16  1  0  0  0  0
 16 18  1  0  0  0  0
 16 17  1  0  0  0  0
 19  1  1  0  0  0  0
 23  2  1  0  0  0  0
 25  6  1  0  0  0  0
 26 14  1  0  0  0  0
 27 16  1  0  0  0  0
M  END
