317667166.xyz
 OpenBabel08132112123D
CC(=O)c1c(S)c(ccc1C(F)(F)F)C(F)F
 24 24  0  0  0  0  0  0  0  0999 V2000
    2.9728    1.4390    1.3269 C   0  0  0  0  0  0  0  0  0  0  0  0
    2.5286    0.0627    1.7545 C   0  0  0  0  0  0  0  0  0  0  0  0
    3.1421   -0.9495    1.5069 O   0  0  0  0  0  0  0  0  0  0  0  0
    1.2076   -0.0000    2.5135 C   0  0  0  0  0  0  0  0  0  0  0  0
    0.0000   -0.0000    1.7888 C   0  0  0  0  0  0  0  0  0  0  0  0
    0.0000    0.0000    0.0000 S   0  0  0  0  0  0  0  0  0  0  0  0
   -1.2281    0.0231    2.4855 C   0  0  0  0  0  0  0  0  0  0  0  0
   -1.2312    0.0192    3.8799 C   0  0  0  0  0  0  0  0  0  0  0  0
   -0.0408   -0.0343    4.6011 C   0  0  0  0  0  0  0  0  0  0  0  0
    1.1759   -0.0483    3.9190 C   0  0  0  0  0  0  0  0  0  0  0  0
    2.4596   -0.1505    4.7165 C   0  0  0  0  0  0  0  0  0  0  0  0
    2.2507    0.0703    6.0238 F   0  0  0  0  0  0  0  0  0  0  0  0
    3.0195   -1.3606    4.5975 F   0  0  0  0  0  0  0  0  0  0  0  0
    3.3753    0.7528    4.3051 F   0  0  0  0  0  0  0  0  0  0  0  0
   -2.5607    0.0192    1.7771 C   0  0  0  0  0  0  0  0  0  0  0  0
   -2.7800   -1.1649    1.1509 F   0  0  0  0  0  0  0  0  0  0  0  0
   -2.6095    0.9979    0.8312 F   0  0  0  0  0  0  0  0  0  0  0  0
    3.9121    1.3667    0.7631 H   0  0  0  0  0  0  0  0  0  0  0  0
    3.1106    2.0715    2.2165 H   0  0  0  0  0  0  0  0  0  0  0  0
    2.1895    1.9007    0.7053 H   0  0  0  0  0  0  0  0  0  0  0  0
    1.1260   -0.7378   -0.1265 H   0  0  0  0  0  0  0  0  0  0  0  0
   -2.1847    0.0418    4.4131 H   0  0  0  0  0  0  0  0  0  0  0  0
   -0.0534   -0.0588    5.6901 H   0  0  0  0  0  0  0  0  0  0  0  0
   -3.3885    0.1909    2.4864 H   0  0  0  0  0  0  0  0  0  0  0  0
  1  2  1  0  0  0  0
  1 19  1  0  0  0  0
  2  4  1  0  0  0  0
  3  2  2  0  0  0  0
  4 10  2  0  0  0  0
  5  7  2  0  0  0  0
  5  4  1  0  0  0  0
  6  5  1  0  0  0  0
  7  8  1  0  0  0  0
  8 22  1  0  0  0  0
  8  9  2  0  0  0  0
  9 23  1  0  0  0  0
 10  9  1  0  0  0  0
 10 11  1  0  0  0  0
 11 12  1  0  0  0  0
 13 11  1  0  0  0  0
 14 11  1  0  0  0  0
 15  7  1  0  0  0  0
 15 24  1  0  0  0  0
 16 15  1  0  0  0  0
 17 15  1  0  0  0  0
 18  1  1  0  0  0  0
 20  1  1  0  0  0  0
 21  6  1  0  0  0  0
M  END
