317661817.xyz
 OpenBabel08132112123D
BrCC(=O)c1cc(S)cc(c1OC)OC
 26 26  0  0  0  0  0  0  0  0999 V2000
    2.1684   -2.2956    6.3754 Br  0  0  0  0  0  0  0  0  0  0  0  0
    2.5685   -0.3836    6.1144 C   0  0  0  0  0  0  0  0  0  0  0  0
    2.4349   -0.0289    4.6427 C   0  0  0  0  0  0  0  0  0  0  0  0
    3.4472    0.2335    4.0225 O   0  0  0  0  0  0  0  0  0  0  0  0
    1.1003   -0.0298    3.9517 C   0  0  0  0  0  0  0  0  0  0  0  0
    1.1590    0.0000    2.5445 C   0  0  0  0  0  0  0  0  0  0  0  0
    0.0000   -0.0000    1.7798 C   0  0  0  0  0  0  0  0  0  0  0  0
    0.0000    0.0000    0.0000 S   0  0  0  0  0  0  0  0  0  0  0  0
   -1.2507    0.0096    2.4246 C   0  0  0  0  0  0  0  0  0  0  0  0
   -1.3288    0.0181    3.8164 C   0  0  0  0  0  0  0  0  0  0  0  0
   -0.1467   -0.0234    4.6039 C   0  0  0  0  0  0  0  0  0  0  0  0
   -0.2043    0.0281    5.9582 O   0  0  0  0  0  0  0  0  0  0  0  0
   -1.0546   -0.8649    6.6760 C   0  0  0  0  0  0  0  0  0  0  0  0
   -2.4970    0.0891    4.5031 O   0  0  0  0  0  0  0  0  0  0  0  0
   -3.7133    0.1267    3.7910 C   0  0  0  0  0  0  0  0  0  0  0  0
    1.8699    0.1650    6.7510 H   0  0  0  0  0  0  0  0  0  0  0  0
    3.6131   -0.2418    6.4081 H   0  0  0  0  0  0  0  0  0  0  0  0
    2.1490    0.0140    2.0887 H   0  0  0  0  0  0  0  0  0  0  0  0
    1.3421    0.0133   -0.1521 H   0  0  0  0  0  0  0  0  0  0  0  0
   -2.1606    0.0340    1.8259 H   0  0  0  0  0  0  0  0  0  0  0  0
   -0.5781   -1.0260    7.6528 H   0  0  0  0  0  0  0  0  0  0  0  0
   -1.1329   -1.8340    6.1600 H   0  0  0  0  0  0  0  0  0  0  0  0
   -2.0567   -0.4357    6.8090 H   0  0  0  0  0  0  0  0  0  0  0  0
   -4.5123    0.1771    4.5420 H   0  0  0  0  0  0  0  0  0  0  0  0
   -3.7758    1.0157    3.1388 H   0  0  0  0  0  0  0  0  0  0  0  0
   -3.8543   -0.7790    3.1747 H   0  0  0  0  0  0  0  0  0  0  0  0
  2  1  1  0  0  0  0
  2 17  1  0  0  0  0
  2 16  1  0  0  0  0
  3  2  1  0  0  0  0
  4  3  2  0  0  0  0
  5 11  1  0  0  0  0
  5  3  1  0  0  0  0
  6  5  2  0  0  0  0
  7  9  2  0  0  0  0
  7  6  1  0  0  0  0
  8  7  1  0  0  0  0
  9 10  1  0  0  0  0
 10 14  1  0  0  0  0
 10 11  2  0  0  0  0
 11 12  1  0  0  0  0
 12 13  1  0  0  0  0
 13 23  1  0  0  0  0
 13 21  1  0  0  0  0
 15 14  1  0  0  0  0
 15 24  1  0  0  0  0
 18  6  1  0  0  0  0
 19  8  1  0  0  0  0
 20  9  1  0  0  0  0
 22 13  1  0  0  0  0
 25 15  1  0  0  0  0
 26 15  1  0  0  0  0
M  END
