317639636.xyz
 OpenBabel08132112123D
BrCC(=O)c1c(ccc(c1S)OC(F)F)C(F)F
 25 25  0  0  0  0  0  0  0  0999 V2000
    2.1317   -2.9725    1.6114 Br  0  0  0  0  0  0  0  0  0  0  0  0
    2.8759   -1.3013    0.9254 C   0  0  0  0  0  0  0  0  0  0  0  0
    2.5473   -0.0868    1.7864 C   0  0  0  0  0  0  0  0  0  0  0  0
    3.3783    0.7815    1.9223 O   0  0  0  0  0  0  0  0  0  0  0  0
    1.2110   -0.0000    2.4893 C   0  0  0  0  0  0  0  0  0  0  0  0
    1.2033    0.0819    3.8963 C   0  0  0  0  0  0  0  0  0  0  0  0
   -0.0050    0.1381    4.5857 C   0  0  0  0  0  0  0  0  0  0  0  0
   -1.2147    0.1282    3.8893 C   0  0  0  0  0  0  0  0  0  0  0  0
   -1.2108    0.0560    2.4990 C   0  0  0  0  0  0  0  0  0  0  0  0
    0.0000   -0.0000    1.7756 C   0  0  0  0  0  0  0  0  0  0  0  0
    0.0000    0.0000    0.0000 S   0  0  0  0  0  0  0  0  0  0  0  0
   -2.3735    0.0563    1.7594 O   0  0  0  0  0  0  0  0  0  0  0  0
   -3.4743   -0.6041    2.2464 C   0  0  0  0  0  0  0  0  0  0  0  0
   -4.1697    0.1912    3.0920 F   0  0  0  0  0  0  0  0  0  0  0  0
   -4.2589   -0.8732    1.1987 F   0  0  0  0  0  0  0  0  0  0  0  0
    2.5095    0.0892    4.6623 C   0  0  0  0  0  0  0  0  0  0  0  0
    3.2259   -1.0349    4.3631 F   0  0  0  0  0  0  0  0  0  0  0  0
    2.2795    0.0859    6.0009 F   0  0  0  0  0  0  0  0  0  0  0  0
    2.4755   -1.1749   -0.0883 H   0  0  0  0  0  0  0  0  0  0  0  0
    3.9666   -1.3986    0.8871 H   0  0  0  0  0  0  0  0  0  0  0  0
   -0.0006    0.1979    5.6733 H   0  0  0  0  0  0  0  0  0  0  0  0
   -2.1605    0.2073    4.4252 H   0  0  0  0  0  0  0  0  0  0  0  0
   -1.3210   -0.2416   -0.1324 H   0  0  0  0  0  0  0  0  0  0  0  0
   -3.2039   -1.5342    2.7779 H   0  0  0  0  0  0  0  0  0  0  0  0
    3.1375    0.9598    4.4188 H   0  0  0  0  0  0  0  0  0  0  0  0
  2  1  1  0  0  0  0
  2  3  1  0  0  0  0
  3  4  2  0  0  0  0
  3  5  1  0  0  0  0
  5  6  1  0  0  0  0
  6  7  2  0  0  0  0
  6 16  1  0  0  0  0
  7 21  1  0  0  0  0
  8 22  1  0  0  0  0
  8  7  1  0  0  0  0
  9  8  2  0  0  0  0
 10  5  2  0  0  0  0
 10  9  1  0  0  0  0
 11 10  1  0  0  0  0
 12 13  1  0  0  0  0
 12  9  1  0  0  0  0
 13 24  1  0  0  0  0
 13 14  1  0  0  0  0
 15 13  1  0  0  0  0
 16 18  1  0  0  0  0
 17 16  1  0  0  0  0
 19  2  1  0  0  0  0
 20  2  1  0  0  0  0
 23 11  1  0  0  0  0
 25 16  1  0  0  0  0
M  END
