317699953.xyz
 OpenBabel08132112123D
[O-][N+](=O)c1c(S)cc(cc1C(F)(F)F)C(=O)Cl
 20 20  0  0  0  0  0  0  0  0999 V2000
   -2.7945   -0.7061    1.1985 O   0  0  0  0  0  0  0  0  0  0  0  0
   -2.4720    0.1736    1.9821 N   0  0  0  0  0  0  0  0  0  0  0  0
   -3.1396    1.1416    2.2780 O   0  0  0  0  0  0  0  0  0  0  0  0
   -1.1355    0.0688    2.6029 C   0  0  0  0  0  0  0  0  0  0  0  0
    0.0000    0.0000    1.7713 C   0  0  0  0  0  0  0  0  0  0  0  0
    0.0000    0.0000    0.0000 S   0  0  0  0  0  0  0  0  0  0  0  0
    1.2576   -0.0000    2.3942 C   0  0  0  0  0  0  0  0  0  0  0  0
    1.3795    0.0310    3.7852 C   0  0  0  0  0  0  0  0  0  0  0  0
    0.2341    0.0483    4.5903 C   0  0  0  0  0  0  0  0  0  0  0  0
   -1.0277    0.0742    4.0033 C   0  0  0  0  0  0  0  0  0  0  0  0
   -2.2430    0.1024    4.9193 C   0  0  0  0  0  0  0  0  0  0  0  0
   -3.2320   -0.6683    4.4424 F   0  0  0  0  0  0  0  0  0  0  0  0
   -2.7172    1.3399    5.0833 F   0  0  0  0  0  0  0  0  0  0  0  0
   -1.9216   -0.3659    6.1360 F   0  0  0  0  0  0  0  0  0  0  0  0
    2.7709    0.0174    4.3310 C   0  0  0  0  0  0  0  0  0  0  0  0
    3.7591   -0.0053    3.6699 O   0  0  0  0  0  0  0  0  0  0  0  0
    2.8795    0.0415    6.1251 Cl  0  0  0  0  0  0  0  0  0  0  0  0
   -1.2373   -0.5226   -0.1533 H   0  0  0  0  0  0  0  0  0  0  0  0
    2.1630   -0.0424    1.7867 H   0  0  0  0  0  0  0  0  0  0  0  0
    0.3262    0.0327    5.6737 H   0  0  0  0  0  0  0  0  0  0  0  0
  1  2  2  0  0  0  0
  2  3  2  0  0  0  0
  2  4  1  0  0  0  0
  4 10  2  0  0  0  0
  5  7  2  0  0  0  0
  5  4  1  0  0  0  0
  6  5  1  0  0  0  0
  7  8  1  0  0  0  0
  8 15  1  0  0  0  0
  8  9  2  0  0  0  0
  9 20  1  0  0  0  0
 10  9  1  0  0  0  0
 10 11  1  0  0  0  0
 11 13  1  0  0  0  0
 11 14  1  0  0  0  0
 12 11  1  0  0  0  0
 15 17  1  0  0  0  0
 16 15  2  0  0  0  0
 18  6  1  0  0  0  0
 19  7  1  0  0  0  0
M  END
