317655572.xyz
 OpenBabel08132112123D
FC(Oc1ccc(c(c1C(=O)Cl)S)C(F)(F)F)F
 22 22  0  0  0  0  0  0  0  0999 V2000
    4.0700   -0.9049    5.5822 F   0  0  0  0  0  0  0  0  0  0  0  0
    2.8476   -1.1748    5.1304 C   0  0  0  0  0  0  0  0  0  0  0  0
    2.3448    0.0080    4.6213 O   0  0  0  0  0  0  0  0  0  0  0  0
    1.1531   -0.0578    3.9353 C   0  0  0  0  0  0  0  0  0  0  0  0
   -0.0574   -0.1350    4.6171 C   0  0  0  0  0  0  0  0  0  0  0  0
   -1.2375   -0.1579    3.8793 C   0  0  0  0  0  0  0  0  0  0  0  0
   -1.2242   -0.0890    2.4837 C   0  0  0  0  0  0  0  0  0  0  0  0
    0.0000    0.0000    1.7816 C   0  0  0  0  0  0  0  0  0  0  0  0
    1.1941    0.0000    2.5331 C   0  0  0  0  0  0  0  0  0  0  0  0
    2.5609   -0.0269    1.9250 C   0  0  0  0  0  0  0  0  0  0  0  0
    3.3202   -0.9361    1.9553 O   0  0  0  0  0  0  0  0  0  0  0  0
    3.0389    1.5471    1.1713 Cl  0  0  0  0  0  0  0  0  0  0  0  0
    0.0000    0.0000    0.0000 S   0  0  0  0  0  0  0  0  0  0  0  0
   -2.5504   -0.0754    1.7501 C   0  0  0  0  0  0  0  0  0  0  0  0
   -3.5771   -0.3010    2.5860 F   0  0  0  0  0  0  0  0  0  0  0  0
   -2.7765    1.1045    1.1541 F   0  0  0  0  0  0  0  0  0  0  0  0
   -2.5994   -1.0243    0.7982 F   0  0  0  0  0  0  0  0  0  0  0  0
    2.0912   -1.5934    6.1733 F   0  0  0  0  0  0  0  0  0  0  0  0
    2.8791   -1.9738    4.3703 H   0  0  0  0  0  0  0  0  0  0  0  0
   -0.0581   -0.1743    5.7056 H   0  0  0  0  0  0  0  0  0  0  0  0
   -2.1956   -0.2202    4.3945 H   0  0  0  0  0  0  0  0  0  0  0  0
    1.1526    0.6927   -0.1338 H   0  0  0  0  0  0  0  0  0  0  0  0
  2  1  1  0  0  0  0
  2 18  1  0  0  0  0
  3  2  1  0  0  0  0
  4  5  1  0  0  0  0
  4  3  1  0  0  0  0
  5 20  1  0  0  0  0
  6 21  1  0  0  0  0
  6  5  2  0  0  0  0
  7  6  1  0  0  0  0
  8  7  2  0  0  0  0
  8  9  1  0  0  0  0
  9  4  2  0  0  0  0
 10 11  2  0  0  0  0
 10  9  1  0  0  0  0
 12 10  1  0  0  0  0
 13  8  1  0  0  0  0
 14  7  1  0  0  0  0
 14 15  1  0  0  0  0
 16 14  1  0  0  0  0
 17 14  1  0  0  0  0
 19  2  1  0  0  0  0
 22 13  1  0  0  0  0
M  END
