317698938.xyz
 OpenBabel08132112123D
NC(=O)c1cc(c(cc1S)OC(F)(F)F)C(F)(F)F
 24 24  0  0  0  0  0  0  0  0999 V2000
   -2.8951    0.6468    1.0290 N   0  0  0  0  0  0  0  0  0  0  0  0
   -2.5929    0.0264    2.2083 C   0  0  0  0  0  0  0  0  0  0  0  0
   -3.4508   -0.4614    2.9213 O   0  0  0  0  0  0  0  0  0  0  0  0
   -1.1365   -0.0023    2.6243 C   0  0  0  0  0  0  0  0  0  0  0  0
   -0.9419   -0.0578    4.0131 C   0  0  0  0  0  0  0  0  0  0  0  0
    0.3227   -0.0335    4.5891 C   0  0  0  0  0  0  0  0  0  0  0  0
    1.4368    0.0101    3.7400 C   0  0  0  0  0  0  0  0  0  0  0  0
    1.2827    0.0000    2.3600 C   0  0  0  0  0  0  0  0  0  0  0  0
   -0.0000    0.0000    1.7859 C   0  0  0  0  0  0  0  0  0  0  0  0
    0.0000    0.0000    0.0000 S   0  0  0  0  0  0  0  0  0  0  0  0
    2.6952   -0.0271    4.3164 O   0  0  0  0  0  0  0  0  0  0  0  0
    3.5393    1.0219    4.1388 C   0  0  0  0  0  0  0  0  0  0  0  0
    4.5603    0.8608    4.9612 F   0  0  0  0  0  0  0  0  0  0  0  0
    2.9450    2.1904    4.3894 F   0  0  0  0  0  0  0  0  0  0  0  0
    4.0117    1.0780    2.8805 F   0  0  0  0  0  0  0  0  0  0  0  0
    0.4999   -0.0689    6.0890 C   0  0  0  0  0  0  0  0  0  0  0  0
   -0.6836   -0.0298    6.7204 F   0  0  0  0  0  0  0  0  0  0  0  0
    1.2219    0.9787    6.5239 F   0  0  0  0  0  0  0  0  0  0  0  0
    1.1318   -1.1835    6.4858 F   0  0  0  0  0  0  0  0  0  0  0  0
   -3.8813    0.7802    0.8326 H   0  0  0  0  0  0  0  0  0  0  0  0
   -2.2217    1.2329    0.5492 H   0  0  0  0  0  0  0  0  0  0  0  0
   -1.8297   -0.1067    4.6430 H   0  0  0  0  0  0  0  0  0  0  0  0
    2.1681   -0.0345    1.7262 H   0  0  0  0  0  0  0  0  0  0  0  0
   -1.1868   -0.6221   -0.1751 H   0  0  0  0  0  0  0  0  0  0  0  0
  1  2  1  0  0  0  0
  2  4  1  0  0  0  0
  2  3  2  0  0  0  0
  4  5  2  0  0  0  0
  5  6  1  0  0  0  0
  5 22  1  0  0  0  0
  6 16  1  0  0  0  0
  7 11  1  0  0  0  0
  7  6  2  0  0  0  0
  8  7  1  0  0  0  0
  9  8  2  0  0  0  0
  9  4  1  0  0  0  0
 10  9  1  0  0  0  0
 12 11  1  0  0  0  0
 12 14  1  0  0  0  0
 12 13  1  0  0  0  0
 15 12  1  0  0  0  0
 16 19  1  0  0  0  0
 16 18  1  0  0  0  0
 16 17  1  0  0  0  0
 20  1  1  0  0  0  0
 21  1  1  0  0  0  0
 23  8  1  0  0  0  0
 24 10  1  0  0  0  0
M  END
