317661207.xyz
 OpenBabel08132112123D
N#CCc1cc(OC(F)F)cc(c1S)[N+](=O)[O-]
 23 23  0  0  0  0  0  0  0  0999 V2000
    3.1299   -2.3353    0.5365 N   0  0  0  0  0  0  0  0  0  0  0  0
    2.8716   -1.2949    0.9736 C   0  0  0  0  0  0  0  0  0  0  0  0
    2.5468    0.0164    1.5472 C   0  0  0  0  0  0  0  0  0  0  0  0
    1.2818    0.0000    2.3883 C   0  0  0  0  0  0  0  0  0  0  0  0
    1.4050   -0.0109    3.7704 C   0  0  0  0  0  0  0  0  0  0  0  0
    0.2748   -0.0350    4.5972 C   0  0  0  0  0  0  0  0  0  0  0  0
    0.5101   -0.0478    5.9469 O   0  0  0  0  0  0  0  0  0  0  0  0
   -0.4760    0.3785    6.8024 C   0  0  0  0  0  0  0  0  0  0  0  0
    0.0988    0.5716    7.9894 F   0  0  0  0  0  0  0  0  0  0  0  0
   -1.4266   -0.5745    6.9446 F   0  0  0  0  0  0  0  0  0  0  0  0
   -0.9878   -0.0641    4.0268 C   0  0  0  0  0  0  0  0  0  0  0  0
   -1.1191   -0.0316    2.6296 C   0  0  0  0  0  0  0  0  0  0  0  0
   -0.0000   -0.0000    1.7653 C   0  0  0  0  0  0  0  0  0  0  0  0
    0.0000    0.0000    0.0000 S   0  0  0  0  0  0  0  0  0  0  0  0
   -2.5219   -0.0544    2.1624 N   0  0  0  0  0  0  0  0  0  0  0  0
   -3.3811   -0.3364    2.9768 O   0  0  0  0  0  0  0  0  0  0  0  0
   -2.7736    0.2273    0.9932 O   0  0  0  0  0  0  0  0  0  0  0  0
    3.3980    0.3376    2.1662 H   0  0  0  0  0  0  0  0  0  0  0  0
    2.4545    0.7430    0.7225 H   0  0  0  0  0  0  0  0  0  0  0  0
    2.3901    0.0015    4.2399 H   0  0  0  0  0  0  0  0  0  0  0  0
   -0.9625    1.3077    6.4522 H   0  0  0  0  0  0  0  0  0  0  0  0
   -1.8938   -0.1424    4.6218 H   0  0  0  0  0  0  0  0  0  0  0  0
   -1.3378    0.1779   -0.1091 H   0  0  0  0  0  0  0  0  0  0  0  0
  1  2  3  0  0  0  0
  2  3  1  0  0  0  0
  3 18  1  0  0  0  0
  3  4  1  0  0  0  0
  4  5  1  0  0  0  0
  5 20  1  0  0  0  0
  5  6  2  0  0  0  0
  6  7  1  0  0  0  0
  7  8  1  0  0  0  0
  8 10  1  0  0  0  0
  8  9  1  0  0  0  0
 11  6  1  0  0  0  0
 11 22  1  0  0  0  0
 12 11  2  0  0  0  0
 13  4  2  0  0  0  0
 13 12  1  0  0  0  0
 14 13  1  0  0  0  0
 15 12  1  0  0  0  0
 15 16  2  0  0  0  0
 17 15  2  0  0  0  0
 19  3  1  0  0  0  0
 21  8  1  0  0  0  0
 23 14  1  0  0  0  0
M  END
