317658485.xyz
 OpenBabel08132112123D
CC(=O)c1cc(c(cc1S)C(F)(F)F)C(F)(F)F
 24 24  0  0  0  0  0  0  0  0999 V2000
    2.9691    0.9821    0.9984 C   0  0  0  0  0  0  0  0  0  0  0  0
    2.5825    0.1008    2.1724 C   0  0  0  0  0  0  0  0  0  0  0  0
    3.4380   -0.4543    2.8291 O   0  0  0  0  0  0  0  0  0  0  0  0
    1.1376    0.0000    2.6089 C   0  0  0  0  0  0  0  0  0  0  0  0
    0.9465   -0.0969    3.9969 C   0  0  0  0  0  0  0  0  0  0  0  0
   -0.3125   -0.0997    4.5884 C   0  0  0  0  0  0  0  0  0  0  0  0
   -1.4497   -0.0421    3.7515 C   0  0  0  0  0  0  0  0  0  0  0  0
   -1.2747   -0.0139    2.3712 C   0  0  0  0  0  0  0  0  0  0  0  0
   -0.0000   -0.0000    1.7799 C   0  0  0  0  0  0  0  0  0  0  0  0
    0.0000    0.0000    0.0000 S   0  0  0  0  0  0  0  0  0  0  0  0
   -2.8759    0.0223    4.2759 C   0  0  0  0  0  0  0  0  0  0  0  0
   -3.7649   -0.2190    3.2956 F   0  0  0  0  0  0  0  0  0  0  0  0
   -3.1564    1.2376    4.7677 F   0  0  0  0  0  0  0  0  0  0  0  0
   -3.1009   -0.8776    5.2409 F   0  0  0  0  0  0  0  0  0  0  0  0
   -0.3824   -0.2224    6.1001 C   0  0  0  0  0  0  0  0  0  0  0  0
   -1.2578    0.6398    6.6369 F   0  0  0  0  0  0  0  0  0  0  0  0
    0.8133    0.0286    6.6600 F   0  0  0  0  0  0  0  0  0  0  0  0
   -0.7404   -1.4589    6.4780 F   0  0  0  0  0  0  0  0  0  0  0  0
    2.1712    1.6601    0.6712 H   0  0  0  0  0  0  0  0  0  0  0  0
    3.2701    0.3562    0.1424 H   0  0  0  0  0  0  0  0  0  0  0  0
    3.8603    1.5508    1.3017 H   0  0  0  0  0  0  0  0  0  0  0  0
    1.8379   -0.1500    4.6206 H   0  0  0  0  0  0  0  0  0  0  0  0
   -2.1546   -0.0262    1.7287 H   0  0  0  0  0  0  0  0  0  0  0  0
    1.1732   -0.6414   -0.1817 H   0  0  0  0  0  0  0  0  0  0  0  0
  1 21  1  0  0  0  0
  1  2  1  0  0  0  0
  2  4  1  0  0  0  0
  2  3  2  0  0  0  0
  4  5  2  0  0  0  0
  5  6  1  0  0  0  0
  5 22  1  0  0  0  0
  6 15  1  0  0  0  0
  7 11  1  0  0  0  0
  7  6  2  0  0  0  0
  8  7  1  0  0  0  0
  9  8  2  0  0  0  0
  9  4  1  0  0  0  0
 10  9  1  0  0  0  0
 11 13  1  0  0  0  0
 11 14  1  0  0  0  0
 12 11  1  0  0  0  0
 15 18  1  0  0  0  0
 15 16  1  0  0  0  0
 15 17  1  0  0  0  0
 19  1  1  0  0  0  0
 20  1  1  0  0  0  0
 23  8  1  0  0  0  0
 24 10  1  0  0  0  0
M  END
