317655577.xyz
 OpenBabel08132112123D
COc1cc(OC(F)F)c(cc1S)C(=O)C
 26 26  0  0  0  0  0  0  0  0999 V2000
    3.5902    0.0264    2.5268 C   0  0  0  0  0  0  0  0  0  0  0  0
    2.3583    0.0095    1.8337 O   0  0  0  0  0  0  0  0  0  0  0  0
    1.1998    0.0000    2.5289 C   0  0  0  0  0  0  0  0  0  0  0  0
    1.1406    0.0030    3.9259 C   0  0  0  0  0  0  0  0  0  0  0  0
   -0.0963   -0.0115    4.5812 C   0  0  0  0  0  0  0  0  0  0  0  0
   -0.1358    0.0058    5.9621 O   0  0  0  0  0  0  0  0  0  0  0  0
    0.7157   -0.8047    6.6568 C   0  0  0  0  0  0  0  0  0  0  0  0
    1.9066   -0.1836    6.8695 F   0  0  0  0  0  0  0  0  0  0  0  0
    0.1621   -1.0285    7.8548 F   0  0  0  0  0  0  0  0  0  0  0  0
   -1.3017   -0.0065    3.8614 C   0  0  0  0  0  0  0  0  0  0  0  0
   -1.2108    0.0025    2.4568 C   0  0  0  0  0  0  0  0  0  0  0  0
   -0.0000   -0.0000    1.7746 C   0  0  0  0  0  0  0  0  0  0  0  0
    0.0000    0.0000    0.0000 S   0  0  0  0  0  0  0  0  0  0  0  0
   -2.6947   -0.0180    4.4383 C   0  0  0  0  0  0  0  0  0  0  0  0
   -3.6468   -0.0399    3.6806 O   0  0  0  0  0  0  0  0  0  0  0  0
   -2.9148    0.0043    5.9347 C   0  0  0  0  0  0  0  0  0  0  0  0
    3.6894    0.9307    3.1513 H   0  0  0  0  0  0  0  0  0  0  0  0
    4.3767    0.0282    1.7618 H   0  0  0  0  0  0  0  0  0  0  0  0
    3.7065   -0.8669    3.1643 H   0  0  0  0  0  0  0  0  0  0  0  0
    2.0496    0.0482    4.5203 H   0  0  0  0  0  0  0  0  0  0  0  0
    0.9108   -1.7603    6.1378 H   0  0  0  0  0  0  0  0  0  0  0  0
   -2.1555    0.0045    1.9098 H   0  0  0  0  0  0  0  0  0  0  0  0
    1.3432    0.0231   -0.1308 H   0  0  0  0  0  0  0  0  0  0  0  0
   -2.4656   -0.8772    6.4157 H   0  0  0  0  0  0  0  0  0  0  0  0
   -2.4318    0.8791    6.3939 H   0  0  0  0  0  0  0  0  0  0  0  0
   -3.9964    0.0227    6.1181 H   0  0  0  0  0  0  0  0  0  0  0  0
  1 17  1  0  0  0  0
  1 19  1  0  0  0  0
  2  1  1  0  0  0  0
  2  3  1  0  0  0  0
  3  4  2  0  0  0  0
  4 20  1  0  0  0  0
  4  5  1  0  0  0  0
  5  6  1  0  0  0  0
  6  7  1  0  0  0  0
  7  8  1  0  0  0  0
  7  9  1  0  0  0  0
 10 14  1  0  0  0  0
 10  5  2  0  0  0  0
 11 10  1  0  0  0  0
 12 11  2  0  0  0  0
 12  3  1  0  0  0  0
 13 12  1  0  0  0  0
 14 16  1  0  0  0  0
 15 14  2  0  0  0  0
 16 26  1  0  0  0  0
 16 25  1  0  0  0  0
 16 24  1  0  0  0  0
 18  1  1  0  0  0  0
 21  7  1  0  0  0  0
 22 11  1  0  0  0  0
 23 13  1  0  0  0  0
M  END
