317695356.xyz
 OpenBabel08132112123D
N#CCc1cc(OC(F)(F)F)c(c(c1)[N+](=O)[O-])S
 23 23  0  0  0  0  0  0  0  0999 V2000
   -2.4064   -0.2407    7.2299 N   0  0  0  0  0  0  0  0  0  0  0  0
   -1.3485   -0.1642    6.7657 C   0  0  0  0  0  0  0  0  0  0  0  0
   -0.0254   -0.0666    6.1520 C   0  0  0  0  0  0  0  0  0  0  0  0
   -0.0446   -0.0434    4.6319 C   0  0  0  0  0  0  0  0  0  0  0  0
   -1.2338   -0.0443    3.8942 C   0  0  0  0  0  0  0  0  0  0  0  0
   -1.2041   -0.0080    2.5055 C   0  0  0  0  0  0  0  0  0  0  0  0
   -2.4058   -0.0391    1.8055 O   0  0  0  0  0  0  0  0  0  0  0  0
   -3.1910    1.0746    1.8114 C   0  0  0  0  0  0  0  0  0  0  0  0
   -4.1492    0.8874    0.9188 F   0  0  0  0  0  0  0  0  0  0  0  0
   -3.7513    1.2864    3.0084 F   0  0  0  0  0  0  0  0  0  0  0  0
   -2.4980    2.1709    1.4919 F   0  0  0  0  0  0  0  0  0  0  0  0
   -0.0000    0.0000    1.7616 C   0  0  0  0  0  0  0  0  0  0  0  0
    1.1787    0.0000    2.5423 C   0  0  0  0  0  0  0  0  0  0  0  0
    1.1608   -0.0206    3.9373 C   0  0  0  0  0  0  0  0  0  0  0  0
    2.5054    0.0215    1.9073 N   0  0  0  0  0  0  0  0  0  0  0  0
    2.5427    0.1460    0.6919 O   0  0  0  0  0  0  0  0  0  0  0  0
    3.4864   -0.0805    2.6253 O   0  0  0  0  0  0  0  0  0  0  0  0
    0.0000    0.0000    0.0000 S   0  0  0  0  0  0  0  0  0  0  0  0
    0.4646    0.8450    6.5350 H   0  0  0  0  0  0  0  0  0  0  0  0
    0.5837   -0.9149    6.5071 H   0  0  0  0  0  0  0  0  0  0  0  0
   -2.2013   -0.0710    4.3959 H   0  0  0  0  0  0  0  0  0  0  0  0
    2.1214   -0.0242    4.4517 H   0  0  0  0  0  0  0  0  0  0  0  0
   -1.3441   -0.1527   -0.0779 H   0  0  0  0  0  0  0  0  0  0  0  0
  2  1  3  0  0  0  0
  3 20  1  0  0  0  0
  3 19  1  0  0  0  0
  3  2  1  0  0  0  0
  4  3  1  0  0  0  0
  5 21  1  0  0  0  0
  5  4  2  0  0  0  0
  6  5  1  0  0  0  0
  7  8  1  0  0  0  0
  7  6  1  0  0  0  0
  8 10  1  0  0  0  0
  9  8  1  0  0  0  0
 11  8  1  0  0  0  0
 12  6  2  0  0  0  0
 12 13  1  0  0  0  0
 13 14  2  0  0  0  0
 14 22  1  0  0  0  0
 14  4  1  0  0  0  0
 15 13  1  0  0  0  0
 15 17  2  0  0  0  0
 16 15  2  0  0  0  0
 18 12  1  0  0  0  0
 23 18  1  0  0  0  0
M  END
