317666143.xyz
 OpenBabel08132112123D
FC(c1cc(C(=O)C)c(c(c1)C(F)(F)F)S)F
 24 24  0  0  0  0  0  0  0  0999 V2000
    1.2732   -0.7518    6.5322 F   0  0  0  0  0  0  0  0  0  0  0  0
    0.2703    0.0611    6.1022 C   0  0  0  0  0  0  0  0  0  0  0  0
    0.1701    0.0162    4.5993 C   0  0  0  0  0  0  0  0  0  0  0  0
   -1.0607    0.0082    3.9624 C   0  0  0  0  0  0  0  0  0  0  0  0
   -1.1869   -0.0017    2.5594 C   0  0  0  0  0  0  0  0  0  0  0  0
   -2.5747   -0.0205    2.0020 C   0  0  0  0  0  0  0  0  0  0  0  0
   -2.8190   -0.0113    0.8003 O   0  0  0  0  0  0  0  0  0  0  0  0
   -3.7505   -0.0545    2.9612 C   0  0  0  0  0  0  0  0  0  0  0  0
   -0.0000   -0.0000    1.7586 C   0  0  0  0  0  0  0  0  0  0  0  0
    1.2562    0.0000    2.4310 C   0  0  0  0  0  0  0  0  0  0  0  0
    1.3297    0.0061    3.8182 C   0  0  0  0  0  0  0  0  0  0  0  0
    2.5631   -0.0124    1.6587 C   0  0  0  0  0  0  0  0  0  0  0  0
    2.6857    1.0654    0.8670 F   0  0  0  0  0  0  0  0  0  0  0  0
    2.6748   -1.0998    0.8799 F   0  0  0  0  0  0  0  0  0  0  0  0
    3.6231   -0.0121    2.4865 F   0  0  0  0  0  0  0  0  0  0  0  0
    0.0000    0.0000    0.0000 S   0  0  0  0  0  0  0  0  0  0  0  0
   -0.8928   -0.3590    6.6713 F   0  0  0  0  0  0  0  0  0  0  0  0
    0.4807    1.0754    6.4887 H   0  0  0  0  0  0  0  0  0  0  0  0
   -1.9526   -0.0004    4.5841 H   0  0  0  0  0  0  0  0  0  0  0  0
   -3.7636    0.8323    3.6132 H   0  0  0  0  0  0  0  0  0  0  0  0
   -3.7168   -0.9436    3.6092 H   0  0  0  0  0  0  0  0  0  0  0  0
   -4.6691   -0.0759    2.3632 H   0  0  0  0  0  0  0  0  0  0  0  0
    2.3070   -0.0074    4.2993 H   0  0  0  0  0  0  0  0  0  0  0  0
   -1.3675    0.0007   -0.0703 H   0  0  0  0  0  0  0  0  0  0  0  0
  2 18  1  0  0  0  0
  2  1  1  0  0  0  0
  2 17  1  0  0  0  0
  3  2  1  0  0  0  0
  4 19  1  0  0  0  0
  4  3  1  0  0  0  0
  5  4  2  0  0  0  0
  6  5  1  0  0  0  0
  6  8  1  0  0  0  0
  7  6  2  0  0  0  0
  8 21  1  0  0  0  0
  8 20  1  0  0  0  0
  9 10  2  0  0  0  0
  9  5  1  0  0  0  0
 10 11  1  0  0  0  0
 11 23  1  0  0  0  0
 11  3  2  0  0  0  0
 12 10  1  0  0  0  0
 12 15  1  0  0  0  0
 13 12  1  0  0  0  0
 14 12  1  0  0  0  0
 16  9  1  0  0  0  0
 22  8  1  0  0  0  0
 24 16  1  0  0  0  0
M  END
