317675898.xyz
 OpenBabel08132112123D
ClCC(=O)c1cc(C)c(cc1S)OC
 25 25  0  0  0  0  0  0  0  0999 V2000
   -2.4347   -2.1130    0.4360 Cl  0  0  0  0  0  0  0  0  0  0  0  0
   -3.0179   -0.4351    0.7579 C   0  0  0  0  0  0  0  0  0  0  0  0
   -2.5949    0.0484    2.1396 C   0  0  0  0  0  0  0  0  0  0  0  0
   -3.4694    0.4386    2.8904 O   0  0  0  0  0  0  0  0  0  0  0  0
   -1.1669    0.0101    2.5918 C   0  0  0  0  0  0  0  0  0  0  0  0
   -1.0046    0.0418    3.9963 C   0  0  0  0  0  0  0  0  0  0  0  0
    0.2254    0.0492    4.6323 C   0  0  0  0  0  0  0  0  0  0  0  0
    0.3692    0.0739    6.1278 C   0  0  0  0  0  0  0  0  0  0  0  0
    1.3792    0.0297    3.8131 C   0  0  0  0  0  0  0  0  0  0  0  0
    1.2590    0.0000    2.4219 C   0  0  0  0  0  0  0  0  0  0  0  0
    0.0000   -0.0000    1.7981 C   0  0  0  0  0  0  0  0  0  0  0  0
    0.0000    0.0000    0.0000 S   0  0  0  0  0  0  0  0  0  0  0  0
    2.5620    0.0308    4.4671 O   0  0  0  0  0  0  0  0  0  0  0  0
    3.7656   -0.0010    3.7309 C   0  0  0  0  0  0  0  0  0  0  0  0
   -4.1130   -0.4434    0.7329 H   0  0  0  0  0  0  0  0  0  0  0  0
   -2.6147    0.2110   -0.0330 H   0  0  0  0  0  0  0  0  0  0  0  0
   -1.9177    0.0711    4.5931 H   0  0  0  0  0  0  0  0  0  0  0  0
    0.9459    0.9539    6.4558 H   0  0  0  0  0  0  0  0  0  0  0  0
    0.9215   -0.8097    6.4871 H   0  0  0  0  0  0  0  0  0  0  0  0
   -0.6143    0.0959    6.6170 H   0  0  0  0  0  0  0  0  0  0  0  0
    2.1477   -0.0355    1.7946 H   0  0  0  0  0  0  0  0  0  0  0  0
    0.9587    0.9486   -0.1124 H   0  0  0  0  0  0  0  0  0  0  0  0
    4.5810    0.0065    4.4656 H   0  0  0  0  0  0  0  0  0  0  0  0
    3.8637    0.8812    3.0741 H   0  0  0  0  0  0  0  0  0  0  0  0
    3.8418   -0.9148    3.1160 H   0  0  0  0  0  0  0  0  0  0  0  0
  1  2  1  0  0  0  0
  2  3  1  0  0  0  0
  3  5  1  0  0  0  0
  3  4  2  0  0  0  0
  5  6  2  0  0  0  0
  6 17  1  0  0  0  0
  6  7  1  0  0  0  0
  7  8  1  0  0  0  0
  8 18  1  0  0  0  0
  8 19  1  0  0  0  0
  8 20  1  0  0  0  0
  9 13  1  0  0  0  0
  9  7  2  0  0  0  0
 10  9  1  0  0  0  0
 11 10  2  0  0  0  0
 11  5  1  0  0  0  0
 12 11  1  0  0  0  0
 14 23  1  0  0  0  0
 14 13  1  0  0  0  0
 15  2  1  0  0  0  0
 16  2  1  0  0  0  0
 21 10  1  0  0  0  0
 22 12  1  0  0  0  0
 24 14  1  0  0  0  0
 25 14  1  0  0  0  0
M  END
