317667679.xyz
 OpenBabel08132112123D
FC(c1c(S)c(ccc1C(=O)N)C(F)(F)F)F
 23 23  0  0  0  0  0  0  0  0999 V2000
    2.6683   -1.1482    1.1230 F   0  0  0  0  0  0  0  0  0  0  0  0
    2.5541   -0.0462    1.9168 C   0  0  0  0  0  0  0  0  0  0  0  0
    1.1833    0.0000    2.5635 C   0  0  0  0  0  0  0  0  0  0  0  0
   -0.0000    0.0000    1.7798 C   0  0  0  0  0  0  0  0  0  0  0  0
    0.0000    0.0000    0.0000 S   0  0  0  0  0  0  0  0  0  0  0  0
   -1.2538   -0.0370    2.4379 C   0  0  0  0  0  0  0  0  0  0  0  0
   -1.3204   -0.0725    3.8298 C   0  0  0  0  0  0  0  0  0  0  0  0
   -0.1605   -0.0692    4.5943 C   0  0  0  0  0  0  0  0  0  0  0  0
    1.0917   -0.0305    3.9705 C   0  0  0  0  0  0  0  0  0  0  0  0
    2.3191    0.0297    4.8556 C   0  0  0  0  0  0  0  0  0  0  0  0
    3.2632    0.7674    4.6291 O   0  0  0  0  0  0  0  0  0  0  0  0
    2.2691   -0.7789    5.9521 N   0  0  0  0  0  0  0  0  0  0  0  0
   -2.5599    0.0037    1.6670 C   0  0  0  0  0  0  0  0  0  0  0  0
   -2.6229   -0.9667    0.7387 F   0  0  0  0  0  0  0  0  0  0  0  0
   -3.6165   -0.1656    2.4816 F   0  0  0  0  0  0  0  0  0  0  0  0
   -2.7325    1.1757    1.0386 F   0  0  0  0  0  0  0  0  0  0  0  0
    2.7513    1.0466    1.1099 F   0  0  0  0  0  0  0  0  0  0  0  0
    3.3656   -0.0527    2.6498 H   0  0  0  0  0  0  0  0  0  0  0  0
    1.2419    0.4973   -0.1506 H   0  0  0  0  0  0  0  0  0  0  0  0
   -2.2956   -0.0871    4.3153 H   0  0  0  0  0  0  0  0  0  0  0  0
   -0.2277   -0.0629    5.6828 H   0  0  0  0  0  0  0  0  0  0  0  0
    1.5733   -1.5054    6.0531 H   0  0  0  0  0  0  0  0  0  0  0  0
    3.0729   -0.7798    6.5700 H   0  0  0  0  0  0  0  0  0  0  0  0
  1  2  1  0  0  0  0
  2  3  1  0  0  0  0
  2 18  1  0  0  0  0
  3  9  2  0  0  0  0
  4  6  2  0  0  0  0
  4  3  1  0  0  0  0
  5  4  1  0  0  0  0
  6  7  1  0  0  0  0
  7 20  1  0  0  0  0
  7  8  2  0  0  0  0
  8 21  1  0  0  0  0
  9  8  1  0  0  0  0
  9 10  1  0  0  0  0
 10 12  1  0  0  0  0
 11 10  2  0  0  0  0
 12 22  1  0  0  0  0
 12 23  1  0  0  0  0
 13  6  1  0  0  0  0
 13 15  1  0  0  0  0
 14 13  1  0  0  0  0
 16 13  1  0  0  0  0
 17  2  1  0  0  0  0
 19  5  1  0  0  0  0
M  END
