317671005.xyz
 OpenBabel08132112123D
COc1cc(C(F)F)c(c(c1)C(=O)Cl)S
 22 22  0  0  0  0  0  0  0  0999 V2000
   -1.5044    0.2984    6.6225 C   0  0  0  0  0  0  0  0  0  0  0  0
   -0.2599    0.2146    5.9611 O   0  0  0  0  0  0  0  0  0  0  0  0
   -0.2419    0.1507    4.6107 C   0  0  0  0  0  0  0  0  0  0  0  0
   -1.3807    0.1514    3.7989 C   0  0  0  0  0  0  0  0  0  0  0  0
   -1.2594    0.0752    2.4100 C   0  0  0  0  0  0  0  0  0  0  0  0
   -2.5228    0.0647    1.5789 C   0  0  0  0  0  0  0  0  0  0  0  0
   -3.6211   -0.0935    2.3665 F   0  0  0  0  0  0  0  0  0  0  0  0
   -2.6676    1.2456    0.9150 F   0  0  0  0  0  0  0  0  0  0  0  0
   -0.0000    0.0000    1.7781 C   0  0  0  0  0  0  0  0  0  0  0  0
    1.1594   -0.0000    2.6140 C   0  0  0  0  0  0  0  0  0  0  0  0
    1.0135    0.0733    4.0060 C   0  0  0  0  0  0  0  0  0  0  0  0
    2.5247   -0.1144    2.0395 C   0  0  0  0  0  0  0  0  0  0  0  0
    2.8183   -0.4912    0.9434 O   0  0  0  0  0  0  0  0  0  0  0  0
    3.8684    0.3954    3.1368 Cl  0  0  0  0  0  0  0  0  0  0  0  0
    0.0000    0.0000    0.0000 S   0  0  0  0  0  0  0  0  0  0  0  0
   -2.1323   -0.5883    6.4246 H   0  0  0  0  0  0  0  0  0  0  0  0
   -1.2838    0.3481    7.6964 H   0  0  0  0  0  0  0  0  0  0  0  0
   -2.0629    1.2043    6.3271 H   0  0  0  0  0  0  0  0  0  0  0  0
   -2.3813    0.1938    4.2229 H   0  0  0  0  0  0  0  0  0  0  0  0
   -2.5143   -0.7444    0.8290 H   0  0  0  0  0  0  0  0  0  0  0  0
    1.8927    0.0671    4.6467 H   0  0  0  0  0  0  0  0  0  0  0  0
    1.2262   -0.5487   -0.1398 H   0  0  0  0  0  0  0  0  0  0  0  0
  1 17  1  0  0  0  0
  2  1  1  0  0  0  0
  3  2  1  0  0  0  0
  4 19  1  0  0  0  0
  4  3  2  0  0  0  0
  5  4  1  0  0  0  0
  6  7  1  0  0  0  0
  6  5  1  0  0  0  0
  8  6  1  0  0  0  0
  9  5  2  0  0  0  0
  9 10  1  0  0  0  0
 10 11  2  0  0  0  0
 11  3  1  0  0  0  0
 11 21  1  0  0  0  0
 12 10  1  0  0  0  0
 12 14  1  0  0  0  0
 13 12  2  0  0  0  0
 15  9  1  0  0  0  0
 16  1  1  0  0  0  0
 18  1  1  0  0  0  0
 20  6  1  0  0  0  0
 22 15  1  0  0  0  0
M  END
