317655573.xyz
 OpenBabel08132112123D
BrCC(=O)c1cc(OC(F)F)c(c(c1)C(F)(F)F)S
 25 25  0  0  0  0  0  0  0  0999 V2000
   -1.1249   -0.1030    8.7666 Br  0  0  0  0  0  0  0  0  0  0  0  0
   -1.3016   -0.0578    6.8371 C   0  0  0  0  0  0  0  0  0  0  0  0
    0.0377   -0.0658    6.1042 C   0  0  0  0  0  0  0  0  0  0  0  0
    1.0995   -0.0865    6.6821 O   0  0  0  0  0  0  0  0  0  0  0  0
   -0.0287   -0.0445    4.6062 C   0  0  0  0  0  0  0  0  0  0  0  0
   -1.2299   -0.0251    3.8846 C   0  0  0  0  0  0  0  0  0  0  0  0
   -1.2101   -0.0165    2.4932 C   0  0  0  0  0  0  0  0  0  0  0  0
   -2.3856    0.0170    1.7685 O   0  0  0  0  0  0  0  0  0  0  0  0
   -3.3465   -0.9267    2.0395 C   0  0  0  0  0  0  0  0  0  0  0  0
   -4.1211   -1.0172    0.9564 F   0  0  0  0  0  0  0  0  0  0  0  0
   -4.1254   -0.5241    3.0740 F   0  0  0  0  0  0  0  0  0  0  0  0
    0.0000    0.0000    1.7652 C   0  0  0  0  0  0  0  0  0  0  0  0
    1.2053   -0.0000    2.5086 C   0  0  0  0  0  0  0  0  0  0  0  0
    1.1806   -0.0301    3.8990 C   0  0  0  0  0  0  0  0  0  0  0  0
    2.5448    0.0495    1.8028 C   0  0  0  0  0  0  0  0  0  0  0  0
    3.5647   -0.0513    2.6646 F   0  0  0  0  0  0  0  0  0  0  0  0
    2.6692   -0.9522    0.9134 F   0  0  0  0  0  0  0  0  0  0  0  0
    2.6998    1.2002    1.1274 F   0  0  0  0  0  0  0  0  0  0  0  0
    0.0000    0.0000    0.0000 S   0  0  0  0  0  0  0  0  0  0  0  0
   -1.9025   -0.9284    6.5399 H   0  0  0  0  0  0  0  0  0  0  0  0
   -1.8682    0.8475    6.5778 H   0  0  0  0  0  0  0  0  0  0  0  0
   -2.1984   -0.0073    4.3823 H   0  0  0  0  0  0  0  0  0  0  0  0
   -2.9111   -1.9105    2.2907 H   0  0  0  0  0  0  0  0  0  0  0  0
    2.1099   -0.0362    4.4675 H   0  0  0  0  0  0  0  0  0  0  0  0
   -1.3373    0.1573   -0.1093 H   0  0  0  0  0  0  0  0  0  0  0  0
  2  1  1  0  0  0  0
  3  4  2  0  0  0  0
  3  2  1  0  0  0  0
  5  3  1  0  0  0  0
  6 22  1  0  0  0  0
  6  5  2  0  0  0  0
  7  6  1  0  0  0  0
  8  9  1  0  0  0  0
  8  7  1  0  0  0  0
  9 23  1  0  0  0  0
  9 11  1  0  0  0  0
 10  9  1  0  0  0  0
 12  7  2  0  0  0  0
 12 13  1  0  0  0  0
 13 14  2  0  0  0  0
 14 24  1  0  0  0  0
 14  5  1  0  0  0  0
 15 13  1  0  0  0  0
 15 16  1  0  0  0  0
 17 15  1  0  0  0  0
 18 15  1  0  0  0  0
 19 12  1  0  0  0  0
 20  2  1  0  0  0  0
 21  2  1  0  0  0  0
 25 19  1  0  0  0  0
M  END
