31767456.xyz
 OpenBabel08132112123D
CCOc1ccc(cc1)N1C(=CC(N=C1S)(C)C)C
 39 40  0  0  0  0  0  0  0  0999 V2000
    7.6323   -0.5357   -2.2525 C   0  0  0  0  0  0  0  0  0  0  0  0
    6.4508   -0.9754   -1.4124 C   0  0  0  0  0  0  0  0  0  0  0  0
    5.8247    0.1884   -0.8944 O   0  0  0  0  0  0  0  0  0  0  0  0
    4.7290    0.0664   -0.1121 C   0  0  0  0  0  0  0  0  0  0  0  0
    4.1594    1.2681    0.3473 C   0  0  0  0  0  0  0  0  0  0  0  0
    3.0301    1.2434    1.1546 C   0  0  0  0  0  0  0  0  0  0  0  0
    2.4460    0.0224    1.5260 C   0  0  0  0  0  0  0  0  0  0  0  0
    3.0126   -1.1688    1.0675 C   0  0  0  0  0  0  0  0  0  0  0  0
    4.1474   -1.1584    0.2528 C   0  0  0  0  0  0  0  0  0  0  0  0
    1.2807   -0.0000    2.3532 N   0  0  0  0  0  0  0  0  0  0  0  0
    1.3719   -0.0252    3.7672 C   0  0  0  0  0  0  0  0  0  0  0  0
    0.2503   -0.0249    4.5049 C   0  0  0  0  0  0  0  0  0  0  0  0
   -1.1383    0.0114    3.9018 C   0  0  0  0  0  0  0  0  0  0  0  0
   -1.0975   -0.0024    2.4331 N   0  0  0  0  0  0  0  0  0  0  0  0
    0.0000    0.0000    1.7987 C   0  0  0  0  0  0  0  0  0  0  0  0
    0.0000    0.0000    0.0000 S   0  0  0  0  0  0  0  0  0  0  0  0
   -1.8722    1.2952    4.3338 C   0  0  0  0  0  0  0  0  0  0  0  0
   -1.9470   -1.2183    4.3550 C   0  0  0  0  0  0  0  0  0  0  0  0
    2.7544   -0.0570    4.3486 C   0  0  0  0  0  0  0  0  0  0  0  0
    8.1473   -1.4124   -2.6740 H   0  0  0  0  0  0  0  0  0  0  0  0
    8.3507    0.0328   -1.6427 H   0  0  0  0  0  0  0  0  0  0  0  0
    7.2996    0.1070   -3.0815 H   0  0  0  0  0  0  0  0  0  0  0  0
    5.7278   -1.5518   -2.0194 H   0  0  0  0  0  0  0  0  0  0  0  0
    6.7789   -1.6272   -0.5811 H   0  0  0  0  0  0  0  0  0  0  0  0
    4.6242    2.2086    0.0469 H   0  0  0  0  0  0  0  0  0  0  0  0
    2.5785    2.1739    1.5037 H   0  0  0  0  0  0  0  0  0  0  0  0
    2.5497   -2.1167    1.3485 H   0  0  0  0  0  0  0  0  0  0  0  0
    4.5638   -2.1038   -0.0922 H   0  0  0  0  0  0  0  0  0  0  0  0
    0.3370   -0.0503    5.5937 H   0  0  0  0  0  0  0  0  0  0  0  0
   -1.3512    0.0130   -0.0330 H   0  0  0  0  0  0  0  0  0  0  0  0
   -1.9782    1.3364    5.4302 H   0  0  0  0  0  0  0  0  0  0  0  0
   -1.3115    2.1831    4.0055 H   0  0  0  0  0  0  0  0  0  0  0  0
   -2.8743    1.3293    3.8787 H   0  0  0  0  0  0  0  0  0  0  0  0
   -2.0551   -1.2346    5.4518 H   0  0  0  0  0  0  0  0  0  0  0  0
   -2.9493   -1.1999    3.8998 H   0  0  0  0  0  0  0  0  0  0  0  0
   -1.4408   -2.1435    4.0416 H   0  0  0  0  0  0  0  0  0  0  0  0
    3.3163   -0.9404    4.0060 H   0  0  0  0  0  0  0  0  0  0  0  0
    2.6971   -0.0800    5.4447 H   0  0  0  0  0  0  0  0  0  0  0  0
    3.3412    0.8247    4.0455 H   0  0  0  0  0  0  0  0  0  0  0  0
  1 21  1  0  0  0  0
  1  2  1  0  0  0  0
  2  3  1  0  0  0  0
  2 24  1  0  0  0  0
  3  4  1  0  0  0  0
  4  9  2  0  0  0  0
  4  5  1  0  0  0  0
  5  6  2  0  0  0  0
  6 26  1  0  0  0  0
  6  7  1  0  0  0  0
  7 10  1  0  0  0  0
  8 27  1  0  0  0  0
  8  7  2  0  0  0  0
  9  8  1  0  0  0  0
 10 11  1  0  0  0  0
 11 19  1  0  0  0  0
 11 12  2  0  0  0  0
 12 29  1  0  0  0  0
 13 17  1  0  0  0  0
 13 18  1  0  0  0  0
 13 12  1  0  0  0  0
 14 13  1  0  0  0  0
 15 10  1  0  0  0  0
 15 14  2  0  0  0  0
 16 15  1  0  0  0  0
 17 31  1  0  0  0  0
 18 34  1  0  0  0  0
 19 38  1  0  0  0  0
 20  1  1  0  0  0  0
 22  1  1  0  0  0  0
 23  2  1  0  0  0  0
 25  5  1  0  0  0  0
 28  9  1  0  0  0  0
 30 16  1  0  0  0  0
 32 17  1  0  0  0  0
 33 17  1  0  0  0  0
 35 18  1  0  0  0  0
 36 18  1  0  0  0  0
 37 19  1  0  0  0  0
 39 19  1  0  0  0  0
M  END
