317675093.xyz
 OpenBabel08132112123D
FC(c1cc(S)c(cc1C)C(=O)C)F
 24 24  0  0  0  0  0  0  0  0999 V2000
   -2.9165    1.1832    5.1393 F   0  0  0  0  0  0  0  0  0  0  0  0
   -2.7115    0.0083    4.4735 C   0  0  0  0  0  0  0  0  0  0  0  0
   -1.3481    0.0031    3.8267 C   0  0  0  0  0  0  0  0  0  0  0  0
   -1.2451   -0.0014    2.4411 C   0  0  0  0  0  0  0  0  0  0  0  0
   -0.0000   -0.0000    1.7848 C   0  0  0  0  0  0  0  0  0  0  0  0
    0.0000    0.0000    0.0000 S   0  0  0  0  0  0  0  0  0  0  0  0
    1.1764   -0.0000    2.5719 C   0  0  0  0  0  0  0  0  0  0  0  0
    1.0361    0.0016    3.9739 C   0  0  0  0  0  0  0  0  0  0  0  0
   -0.1885    0.0044    4.6314 C   0  0  0  0  0  0  0  0  0  0  0  0
   -0.2630    0.0151    6.1368 C   0  0  0  0  0  0  0  0  0  0  0  0
    2.6123   -0.0046    2.0917 C   0  0  0  0  0  0  0  0  0  0  0  0
    3.5131   -0.0139    2.9095 O   0  0  0  0  0  0  0  0  0  0  0  0
    2.9421    0.0030    0.6172 C   0  0  0  0  0  0  0  0  0  0  0  0
   -3.7017   -0.1114    3.5501 F   0  0  0  0  0  0  0  0  0  0  0  0
   -2.8323   -0.8101    5.2048 H   0  0  0  0  0  0  0  0  0  0  0  0
   -2.1654   -0.0096    1.8570 H   0  0  0  0  0  0  0  0  0  0  0  0
   -1.3459    0.0068   -0.1187 H   0  0  0  0  0  0  0  0  0  0  0  0
    1.9647    0.0008    4.5469 H   0  0  0  0  0  0  0  0  0  0  0  0
   -0.8048   -0.8655    6.5226 H   0  0  0  0  0  0  0  0  0  0  0  0
    0.7431    0.0066    6.5776 H   0  0  0  0  0  0  0  0  0  0  0  0
   -0.7982    0.9037    6.5037 H   0  0  0  0  0  0  0  0  0  0  0  0
    2.5239   -0.8814    0.1113 H   0  0  0  0  0  0  0  0  0  0  0  0
    4.0343    0.0035    0.5132 H   0  0  0  0  0  0  0  0  0  0  0  0
    2.5229    0.8918    0.1197 H   0  0  0  0  0  0  0  0  0  0  0  0
  2  1  1  0  0  0  0
  2 15  1  0  0  0  0
  3  2  1  0  0  0  0
  3  9  2  0  0  0  0
  4  3  1  0  0  0  0
  5  4  2  0  0  0  0
  5  7  1  0  0  0  0
  6  5  1  0  0  0  0
  7  8  2  0  0  0  0
  8 18  1  0  0  0  0
  8  9  1  0  0  0  0
  9 10  1  0  0  0  0
 10 21  1  0  0  0  0
 10 19  1  0  0  0  0
 10 20  1  0  0  0  0
 11  7  1  0  0  0  0
 11 12  2  0  0  0  0
 13 11  1  0  0  0  0
 14  2  1  0  0  0  0
 16  4  1  0  0  0  0
 17  6  1  0  0  0  0
 22 13  1  0  0  0  0
 23 13  1  0  0  0  0
 24 13  1  0  0  0  0
M  END
