317681190.xyz
 OpenBabel08132112123D
CCOc1cc(cc(c1S)C(=O)C)C(F)F
 28 28  0  0  0  0  0  0  0  0999 V2000
   -4.2508    1.0907    0.6334 C   0  0  0  0  0  0  0  0  0  0  0  0
   -3.0404    1.2588    1.5250 C   0  0  0  0  0  0  0  0  0  0  0  0
   -2.4096   -0.0217    1.6763 O   0  0  0  0  0  0  0  0  0  0  0  0
   -1.2621   -0.0195    2.4276 C   0  0  0  0  0  0  0  0  0  0  0  0
   -1.3610   -0.0595    3.8136 C   0  0  0  0  0  0  0  0  0  0  0  0
   -0.2060   -0.0658    4.6013 C   0  0  0  0  0  0  0  0  0  0  0  0
    1.0352   -0.0328    3.9788 C   0  0  0  0  0  0  0  0  0  0  0  0
    1.1700    0.0000    2.5791 C   0  0  0  0  0  0  0  0  0  0  0  0
    0.0000    0.0000    1.7787 C   0  0  0  0  0  0  0  0  0  0  0  0
    0.0000    0.0000    0.0000 S   0  0  0  0  0  0  0  0  0  0  0  0
    2.6069    0.0377    2.0986 C   0  0  0  0  0  0  0  0  0  0  0  0
    3.5046   -0.0979    2.9076 O   0  0  0  0  0  0  0  0  0  0  0  0
    2.9397    0.2633    0.6420 C   0  0  0  0  0  0  0  0  0  0  0  0
   -0.3059   -0.1480    6.1034 C   0  0  0  0  0  0  0  0  0  0  0  0
    0.6873    0.5718    6.6892 F   0  0  0  0  0  0  0  0  0  0  0  0
   -1.5000    0.3517    6.5303 F   0  0  0  0  0  0  0  0  0  0  0  0
   -3.9561    0.7387   -0.3675 H   0  0  0  0  0  0  0  0  0  0  0  0
   -4.9497    0.3580    1.0644 H   0  0  0  0  0  0  0  0  0  0  0  0
   -4.7756    2.0515    0.5203 H   0  0  0  0  0  0  0  0  0  0  0  0
   -2.3159    1.9720    1.0912 H   0  0  0  0  0  0  0  0  0  0  0  0
   -3.3280    1.6402    2.5211 H   0  0  0  0  0  0  0  0  0  0  0  0
   -2.3516   -0.0782    4.2696 H   0  0  0  0  0  0  0  0  0  0  0  0
    1.9558   -0.0285    4.5623 H   0  0  0  0  0  0  0  0  0  0  0  0
   -1.3261   -0.2640   -0.0655 H   0  0  0  0  0  0  0  0  0  0  0  0
    2.4310    1.1530    0.2400 H   0  0  0  0  0  0  0  0  0  0  0  0
    2.6204   -0.5970    0.0330 H   0  0  0  0  0  0  0  0  0  0  0  0
    4.0271    0.3838    0.5582 H   0  0  0  0  0  0  0  0  0  0  0  0
   -0.2294   -1.1848    6.4800 H   0  0  0  0  0  0  0  0  0  0  0  0
  1 18  1  0  0  0  0
  1  2  1  0  0  0  0
  2  3  1  0  0  0  0
  2 21  1  0  0  0  0
  3  4  1  0  0  0  0
  4  5  1  0  0  0  0
  5 22  1  0  0  0  0
  5  6  2  0  0  0  0
  6 14  1  0  0  0  0
  7 23  1  0  0  0  0
  7  6  1  0  0  0  0
  8  7  2  0  0  0  0
  9  4  2  0  0  0  0
  9  8  1  0  0  0  0
 10  9  1  0  0  0  0
 11  8  1  0  0  0  0
 11 12  2  0  0  0  0
 13 11  1  0  0  0  0
 14 28  1  0  0  0  0
 14 16  1  0  0  0  0
 14 15  1  0  0  0  0
 17  1  1  0  0  0  0
 19  1  1  0  0  0  0
 20  2  1  0  0  0  0
 24 10  1  0  0  0  0
 25 13  1  0  0  0  0
 26 13  1  0  0  0  0
 27 13  1  0  0  0  0
M  END
