317654544.xyz
 OpenBabel08132112123D
FC(Oc1c(S)ccc(c1C(=O)C)C(F)(F)F)F
 25 25  0  0  0  0  0  0  0  0999 V2000
   -3.8218    1.7308    1.9112 F   0  0  0  0  0  0  0  0  0  0  0  0
   -2.8284    1.1077    1.2381 C   0  0  0  0  0  0  0  0  0  0  0  0
   -2.4215   -0.0037    1.9404 O   0  0  0  0  0  0  0  0  0  0  0  0
   -1.1769    0.0132    2.5518 C   0  0  0  0  0  0  0  0  0  0  0  0
    0.0000    0.0000    1.7763 C   0  0  0  0  0  0  0  0  0  0  0  0
    0.0000    0.0000    0.0000 S   0  0  0  0  0  0  0  0  0  0  0  0
    1.2350    0.0000    2.4376 C   0  0  0  0  0  0  0  0  0  0  0  0
    1.2929   -0.0288    3.8272 C   0  0  0  0  0  0  0  0  0  0  0  0
    0.1206   -0.0860    4.5855 C   0  0  0  0  0  0  0  0  0  0  0  0
   -1.1321   -0.0655    3.9475 C   0  0  0  0  0  0  0  0  0  0  0  0
   -2.4373   -0.2278    4.7292 C   0  0  0  0  0  0  0  0  0  0  0  0
   -2.7803   -1.3366    5.0581 O   0  0  0  0  0  0  0  0  0  0  0  0
   -3.2110    1.0228    5.0489 C   0  0  0  0  0  0  0  0  0  0  0  0
    0.2237   -0.2214    6.0879 C   0  0  0  0  0  0  0  0  0  0  0  0
   -0.0166   -1.4743    6.4957 F   0  0  0  0  0  0  0  0  0  0  0  0
   -0.6611    0.5773    6.7218 F   0  0  0  0  0  0  0  0  0  0  0  0
    1.4467    0.1161    6.5299 F   0  0  0  0  0  0  0  0  0  0  0  0
   -3.3465    0.6937    0.0693 F   0  0  0  0  0  0  0  0  0  0  0  0
   -2.0105    1.8236    1.0583 H   0  0  0  0  0  0  0  0  0  0  0  0
   -1.2205   -0.5602   -0.1553 H   0  0  0  0  0  0  0  0  0  0  0  0
    2.1560   -0.0068    1.8516 H   0  0  0  0  0  0  0  0  0  0  0  0
    2.2597   -0.0342    4.3305 H   0  0  0  0  0  0  0  0  0  0  0  0
   -3.6002    1.4633    4.1197 H   0  0  0  0  0  0  0  0  0  0  0  0
   -2.5482    1.7630    5.5210 H   0  0  0  0  0  0  0  0  0  0  0  0
   -4.0453    0.7743    5.7181 H   0  0  0  0  0  0  0  0  0  0  0  0
  2  1  1  0  0  0  0
  2  3  1  0  0  0  0
  3  4  1  0  0  0  0
  4 10  2  0  0  0  0
  5  7  2  0  0  0  0
  5  4  1  0  0  0  0
  6  5  1  0  0  0  0
  7  8  1  0  0  0  0
  8 22  1  0  0  0  0
  8  9  2  0  0  0  0
  9 14  1  0  0  0  0
 10  9  1  0  0  0  0
 10 11  1  0  0  0  0
 11 13  1  0  0  0  0
 11 12  2  0  0  0  0
 13 24  1  0  0  0  0
 13 25  1  0  0  0  0
 14 15  1  0  0  0  0
 14 17  1  0  0  0  0
 14 16  1  0  0  0  0
 18  2  1  0  0  0  0
 19  2  1  0  0  0  0
 20  6  1  0  0  0  0
 21  7  1  0  0  0  0
 23 13  1  0  0  0  0
M  END
