317687346.xyz
 OpenBabel08132112123D
CCc1cc(cc(c1C(F)F)S)[N+](=O)[O-]
 24 24  0  0  0  0  0  0  0  0999 V2000
    2.7757   -1.5339    5.0190 C   0  0  0  0  0  0  0  0  0  0  0  0
    2.1806   -0.1195    4.9619 C   0  0  0  0  0  0  0  0  0  0  0  0
    0.9968   -0.0189    4.0197 C   0  0  0  0  0  0  0  0  0  0  0  0
   -0.2857   -0.0010    4.5765 C   0  0  0  0  0  0  0  0  0  0  0  0
   -1.3924    0.0302    3.7359 C   0  0  0  0  0  0  0  0  0  0  0  0
   -1.2776    0.0209    2.3543 C   0  0  0  0  0  0  0  0  0  0  0  0
   -0.0000    0.0000    1.7758 C   0  0  0  0  0  0  0  0  0  0  0  0
    1.1431   -0.0000    2.6128 C   0  0  0  0  0  0  0  0  0  0  0  0
    2.5304    0.0324    2.0208 C   0  0  0  0  0  0  0  0  0  0  0  0
    2.7781   -1.1062    1.2953 F   0  0  0  0  0  0  0  0  0  0  0  0
    2.6799    1.0820    1.1678 F   0  0  0  0  0  0  0  0  0  0  0  0
    0.0000    0.0000    0.0000 S   0  0  0  0  0  0  0  0  0  0  0  0
   -2.7464    0.0554    4.3356 N   0  0  0  0  0  0  0  0  0  0  0  0
   -2.8198    0.0517    5.5529 O   0  0  0  0  0  0  0  0  0  0  0  0
   -3.6985    0.0789    3.5748 O   0  0  0  0  0  0  0  0  0  0  0  0
    2.0168   -2.2603    5.3481 H   0  0  0  0  0  0  0  0  0  0  0  0
    3.1384   -1.8663    4.0337 H   0  0  0  0  0  0  0  0  0  0  0  0
    3.6193   -1.5765    5.7251 H   0  0  0  0  0  0  0  0  0  0  0  0
    2.9611    0.6097    4.6910 H   0  0  0  0  0  0  0  0  0  0  0  0
    1.8432    0.1722    5.9677 H   0  0  0  0  0  0  0  0  0  0  0  0
   -0.4359   -0.0100    5.6549 H   0  0  0  0  0  0  0  0  0  0  0  0
   -2.1789    0.0181    1.7424 H   0  0  0  0  0  0  0  0  0  0  0  0
    3.3180    0.1093    2.7802 H   0  0  0  0  0  0  0  0  0  0  0  0
    1.2801   -0.3719   -0.1931 H   0  0  0  0  0  0  0  0  0  0  0  0
  1 16  1  0  0  0  0
  1 18  1  0  0  0  0
  2  1  1  0  0  0  0
  2 20  1  0  0  0  0
  3  4  1  0  0  0  0
  3  2  1  0  0  0  0
  4 21  1  0  0  0  0
  5 13  1  0  0  0  0
  5  4  2  0  0  0  0
  6  5  1  0  0  0  0
  7  6  2  0  0  0  0
  7  8  1  0  0  0  0
  8  3  2  0  0  0  0
  9  8  1  0  0  0  0
  9 23  1  0  0  0  0
 10  9  1  0  0  0  0
 11  9  1  0  0  0  0
 12  7  1  0  0  0  0
 13 14  2  0  0  0  0
 15 13  2  0  0  0  0
 17  1  1  0  0  0  0
 19  2  1  0  0  0  0
 22  6  1  0  0  0  0
 24 12  1  0  0  0  0
M  END
