317691425.xyz
 OpenBabel08132112123D
CCOc1ccc(c(c1C(F)F)S)C
 26 26  0  0  0  0  0  0  0  0999 V2000
    3.5969   -0.0054    6.6109 C   0  0  0  0  0  0  0  0  0  0  0  0
    2.1674   -0.0031    6.1098 C   0  0  0  0  0  0  0  0  0  0  0  0
    2.2018   -0.0063    4.6908 O   0  0  0  0  0  0  0  0  0  0  0  0
    1.0412   -0.0028    3.9845 C   0  0  0  0  0  0  0  0  0  0  0  0
   -0.2221    0.0003    4.5828 C   0  0  0  0  0  0  0  0  0  0  0  0
   -1.3569    0.0075    3.7713 C   0  0  0  0  0  0  0  0  0  0  0  0
   -1.2835    0.0070    2.3785 C   0  0  0  0  0  0  0  0  0  0  0  0
   -0.0000    0.0000    1.7791 C   0  0  0  0  0  0  0  0  0  0  0  0
    1.1637    0.0000    2.5754 C   0  0  0  0  0  0  0  0  0  0  0  0
    2.5530    0.0208    2.0010 C   0  0  0  0  0  0  0  0  0  0  0  0
    2.7522    1.1235    1.2144 F   0  0  0  0  0  0  0  0  0  0  0  0
    2.7787   -1.0658    1.1925 F   0  0  0  0  0  0  0  0  0  0  0  0
    0.0000    0.0000    0.0000 S   0  0  0  0  0  0  0  0  0  0  0  0
   -2.5338    0.0122    1.5398 C   0  0  0  0  0  0  0  0  0  0  0  0
    4.1314   -0.8994    6.2557 H   0  0  0  0  0  0  0  0  0  0  0  0
    4.1353    0.8851    6.2528 H   0  0  0  0  0  0  0  0  0  0  0  0
    3.6133   -0.0036    7.7115 H   0  0  0  0  0  0  0  0  0  0  0  0
    1.6243    0.8905    6.4688 H   0  0  0  0  0  0  0  0  0  0  0  0
    1.6204   -0.8929    6.4726 H   0  0  0  0  0  0  0  0  0  0  0  0
   -0.3332   -0.0016    5.6653 H   0  0  0  0  0  0  0  0  0  0  0  0
   -2.3428    0.0114    4.2438 H   0  0  0  0  0  0  0  0  0  0  0  0
    3.3181    0.0194    2.7862 H   0  0  0  0  0  0  0  0  0  0  0  0
    1.3281   -0.1065   -0.1899 H   0  0  0  0  0  0  0  0  0  0  0  0
   -2.5787    0.8994    0.8854 H   0  0  0  0  0  0  0  0  0  0  0  0
   -2.5798   -0.8702    0.8793 H   0  0  0  0  0  0  0  0  0  0  0  0
   -3.4316    0.0123    2.1739 H   0  0  0  0  0  0  0  0  0  0  0  0
  1 17  1  0  0  0  0
  2 18  1  0  0  0  0
  2 19  1  0  0  0  0
  2  1  1  0  0  0  0
  3  2  1  0  0  0  0
  4  5  1  0  0  0  0
  4  3  1  0  0  0  0
  5 20  1  0  0  0  0
  6 21  1  0  0  0  0
  6  5  2  0  0  0  0
  7  6  1  0  0  0  0
  8  7  2  0  0  0  0
  8  9  1  0  0  0  0
  9  4  2  0  0  0  0
 10  9  1  0  0  0  0
 10 22  1  0  0  0  0
 11 10  1  0  0  0  0
 12 10  1  0  0  0  0
 13  8  1  0  0  0  0
 14 26  1  0  0  0  0
 14  7  1  0  0  0  0
 15  1  1  0  0  0  0
 16  1  1  0  0  0  0
 23 13  1  0  0  0  0
 24 14  1  0  0  0  0
 25 14  1  0  0  0  0
M  END
