317678247.xyz
 OpenBabel08132112123D
CCOc1ccccc1CC(S)(C)C
 32 32  0  0  0  0  0  0  0  0999 V2000
    1.8593   -2.2465    6.1954 C   0  0  0  0  0  0  0  0  0  0  0  0
    1.8041   -3.1768    5.0003 C   0  0  0  0  0  0  0  0  0  0  0  0
    0.9231   -2.6114    4.0468 O   0  0  0  0  0  0  0  0  0  0  0  0
    0.7071   -3.2461    2.8623 C   0  0  0  0  0  0  0  0  0  0  0  0
    1.2918   -4.4748    2.5262 C   0  0  0  0  0  0  0  0  0  0  0  0
    1.0081   -5.0672    1.2913 C   0  0  0  0  0  0  0  0  0  0  0  0
    0.1400   -4.4473    0.3950 C   0  0  0  0  0  0  0  0  0  0  0  0
   -0.4395   -3.2226    0.7409 C   0  0  0  0  0  0  0  0  0  0  0  0
   -0.1663   -2.5962    1.9602 C   0  0  0  0  0  0  0  0  0  0  0  0
   -0.7815   -1.2649    2.3140 C   0  0  0  0  0  0  0  0  0  0  0  0
   -0.0000    0.0000    1.8696 C   0  0  0  0  0  0  0  0  0  0  0  0
    0.0000    0.0000    0.0000 S   0  0  0  0  0  0  0  0  0  0  0  0
   -0.7496    1.2368    2.3734 C   0  0  0  0  0  0  0  0  0  0  0  0
    1.4434    0.0000    2.3774 C   0  0  0  0  0  0  0  0  0  0  0  0
    2.5268   -2.6571    6.9683 H   0  0  0  0  0  0  0  0  0  0  0  0
    2.2367   -1.2557    5.9000 H   0  0  0  0  0  0  0  0  0  0  0  0
    0.8572   -2.1178    6.6319 H   0  0  0  0  0  0  0  0  0  0  0  0
    2.8086   -3.3059    4.5555 H   0  0  0  0  0  0  0  0  0  0  0  0
    1.4450   -4.1794    5.2995 H   0  0  0  0  0  0  0  0  0  0  0  0
    1.9659   -4.9775    3.2185 H   0  0  0  0  0  0  0  0  0  0  0  0
    1.4710   -6.0245    1.0391 H   0  0  0  0  0  0  0  0  0  0  0  0
   -0.0888   -4.9104   -0.5670 H   0  0  0  0  0  0  0  0  0  0  0  0
   -1.1250   -2.7331    0.0448 H   0  0  0  0  0  0  0  0  0  0  0  0
   -0.8922   -1.1996    3.4066 H   0  0  0  0  0  0  0  0  0  0  0  0
   -1.7917   -1.2058    1.8793 H   0  0  0  0  0  0  0  0  0  0  0  0
    0.5400    1.2339   -0.1302 H   0  0  0  0  0  0  0  0  0  0  0  0
   -0.2488    2.1640    2.0539 H   0  0  0  0  0  0  0  0  0  0  0  0
   -1.7820    1.2573    1.9947 H   0  0  0  0  0  0  0  0  0  0  0  0
   -0.7822    1.2343    3.4764 H   0  0  0  0  0  0  0  0  0  0  0  0
    1.4605   -0.0325    3.4780 H   0  0  0  0  0  0  0  0  0  0  0  0
    1.9676    0.9100    2.0464 H   0  0  0  0  0  0  0  0  0  0  0  0
    1.9969   -0.8698    1.9983 H   0  0  0  0  0  0  0  0  0  0  0  0
  1 17  1  0  0  0  0
  1 15  1  0  0  0  0
  2 19  1  0  0  0  0
  2  1  1  0  0  0  0
  3  2  1  0  0  0  0
  4  3  1  0  0  0  0
  5  4  1  0  0  0  0
  5 20  1  0  0  0  0
  6  5  2  0  0  0  0
  7  8  2  0  0  0  0
  7  6  1  0  0  0  0
  8  9  1  0  0  0  0
  9 10  1  0  0  0  0
  9  4  2  0  0  0  0
 10 24  1  0  0  0  0
 11 10  1  0  0  0  0
 11 13  1  0  0  0  0
 11 14  1  0  0  0  0
 12 11  1  0  0  0  0
 13 29  1  0  0  0  0
 14 30  1  0  0  0  0
 16  1  1  0  0  0  0
 18  2  1  0  0  0  0
 21  6  1  0  0  0  0
 22  7  1  0  0  0  0
 23  8  1  0  0  0  0
 25 10  1  0  0  0  0
 26 12  1  0  0  0  0
 27 13  1  0  0  0  0
 28 13  1  0  0  0  0
 31 14  1  0  0  0  0
 32 14  1  0  0  0  0
M  END
