317612177.xyz
 OpenBabel08132112123D
N#Cc1cc(OC(F)F)c(c(c1)S)C(F)F
 21 21  0  0  0  0  0  0  0  0999 V2000
   -3.7735    0.1110    4.8239 N   0  0  0  0  0  0  0  0  0  0  0  0
   -2.7173    0.0841    4.3447 C   0  0  0  0  0  0  0  0  0  0  0  0
   -1.4078    0.0564    3.7551 C   0  0  0  0  0  0  0  0  0  0  0  0
   -0.2764    0.0250    4.5870 C   0  0  0  0  0  0  0  0  0  0  0  0
    0.9831    0.0092    3.9909 C   0  0  0  0  0  0  0  0  0  0  0  0
    2.1358   -0.0177    4.7396 O   0  0  0  0  0  0  0  0  0  0  0  0
    2.1585    0.5865    5.9753 C   0  0  0  0  0  0  0  0  0  0  0  0
    1.6292   -0.2333    6.9117 F   0  0  0  0  0  0  0  0  0  0  0  0
    3.4409    0.7883    6.2799 F   0  0  0  0  0  0  0  0  0  0  0  0
    1.1493    0.0000    2.5921 C   0  0  0  0  0  0  0  0  0  0  0  0
    0.0000   -0.0000    1.7716 C   0  0  0  0  0  0  0  0  0  0  0  0
   -1.2728    0.0368    2.3640 C   0  0  0  0  0  0  0  0  0  0  0  0
    0.0000    0.0000    0.0000 S   0  0  0  0  0  0  0  0  0  0  0  0
    2.5508    0.0363    2.0344 C   0  0  0  0  0  0  0  0  0  0  0  0
    2.7341    1.1493    1.2721 F   0  0  0  0  0  0  0  0  0  0  0  0
    2.7763   -1.0408    1.2179 F   0  0  0  0  0  0  0  0  0  0  0  0
   -0.3896   -0.0174    5.6682 H   0  0  0  0  0  0  0  0  0  0  0  0
    1.6015    1.5407    5.9844 H   0  0  0  0  0  0  0  0  0  0  0  0
   -2.1644    0.0364    1.7356 H   0  0  0  0  0  0  0  0  0  0  0  0
    1.2895   -0.3444   -0.1853 H   0  0  0  0  0  0  0  0  0  0  0  0
    3.3110    0.0249    2.8253 H   0  0  0  0  0  0  0  0  0  0  0  0
  2  1  3  0  0  0  0
  3  2  1  0  0  0  0
  3  4  2  0  0  0  0
  4 17  1  0  0  0  0
  5  4  1  0  0  0  0
  5  6  1  0  0  0  0
  6  7  1  0  0  0  0
  7 18  1  0  0  0  0
  7  9  1  0  0  0  0
  7  8  1  0  0  0  0
 10  5  2  0  0  0  0
 11 12  2  0  0  0  0
 11 10  1  0  0  0  0
 12  3  1  0  0  0  0
 13 11  1  0  0  0  0
 14 10  1  0  0  0  0
 14 21  1  0  0  0  0
 15 14  1  0  0  0  0
 16 14  1  0  0  0  0
 19 12  1  0  0  0  0
 20 13  1  0  0  0  0
M  END
