317677610.xyz
 OpenBabel08132112123D
CCOc1cc(cc(c1S)C(F)F)C(=O)Cl
 25 25  0  0  0  0  0  0  0  0999 V2000
   -4.6932   -0.0014    1.2986 C   0  0  0  0  0  0  0  0  0  0  0  0
   -3.6314   -0.0005    2.3777 C   0  0  0  0  0  0  0  0  0  0  0  0
   -2.3584   -0.0004    1.7398 O   0  0  0  0  0  0  0  0  0  0  0  0
   -1.2266   -0.0003    2.4829 C   0  0  0  0  0  0  0  0  0  0  0  0
   -1.2278   -0.0004    3.8760 C   0  0  0  0  0  0  0  0  0  0  0  0
   -0.0191   -0.0004    4.5887 C   0  0  0  0  0  0  0  0  0  0  0  0
    1.1920   -0.0002    3.8850 C   0  0  0  0  0  0  0  0  0  0  0  0
    1.2086   -0.0000    2.4928 C   0  0  0  0  0  0  0  0  0  0  0  0
    0.0000    0.0000    1.7622 C   0  0  0  0  0  0  0  0  0  0  0  0
    0.0000    0.0000    0.0000 S   0  0  0  0  0  0  0  0  0  0  0  0
    2.5504    0.0009    1.8055 C   0  0  0  0  0  0  0  0  0  0  0  0
    2.6919    1.0964    1.0104 F   0  0  0  0  0  0  0  0  0  0  0  0
    2.6911   -1.0915    1.0059 F   0  0  0  0  0  0  0  0  0  0  0  0
    0.0635   -0.0004    6.0651 C   0  0  0  0  0  0  0  0  0  0  0  0
    1.0630   -0.0002    6.7118 O   0  0  0  0  0  0  0  0  0  0  0  0
   -1.5462   -0.0007    6.9173 Cl  0  0  0  0  0  0  0  0  0  0  0  0
   -5.6946   -0.0014    1.7547 H   0  0  0  0  0  0  0  0  0  0  0  0
   -4.6009   -0.8949    0.6628 H   0  0  0  0  0  0  0  0  0  0  0  0
   -4.6014    0.8912    0.6616 H   0  0  0  0  0  0  0  0  0  0  0  0
   -3.7206    0.8918    3.0234 H   0  0  0  0  0  0  0  0  0  0  0  0
   -3.7201   -0.8921    3.0244 H   0  0  0  0  0  0  0  0  0  0  0  0
   -2.1626   -0.0005    4.4300 H   0  0  0  0  0  0  0  0  0  0  0  0
    2.1270   -0.0001    4.4476 H   0  0  0  0  0  0  0  0  0  0  0  0
   -1.3471    0.0037   -0.0989 H   0  0  0  0  0  0  0  0  0  0  0  0
    3.3746   -0.0010    2.5385 H   0  0  0  0  0  0  0  0  0  0  0  0
  1 17  1  0  0  0  0
  1  2  1  0  0  0  0
  2 20  1  0  0  0  0
  2 21  1  0  0  0  0
  3  2  1  0  0  0  0
  3  4  1  0  0  0  0
  4  5  1  0  0  0  0
  5 22  1  0  0  0  0
  5  6  2  0  0  0  0
  6 14  1  0  0  0  0
  7 23  1  0  0  0  0
  7  6  1  0  0  0  0
  8  7  2  0  0  0  0
  9  4  2  0  0  0  0
  9  8  1  0  0  0  0
 10  9  1  0  0  0  0
 11  8  1  0  0  0  0
 11 25  1  0  0  0  0
 12 11  1  0  0  0  0
 13 11  1  0  0  0  0
 14 15  2  0  0  0  0
 14 16  1  0  0  0  0
 18  1  1  0  0  0  0
 19  1  1  0  0  0  0
 24 10  1  0  0  0  0
M  END
