317675894.xyz
 OpenBabel08132112123D
COc1c(C)ccc(c1S)C(=O)Cl
 22 22  0  0  0  0  0  0  0  0999 V2000
   -2.9374   -1.2079    1.1637 C   0  0  0  0  0  0  0  0  0  0  0  0
   -2.3666    0.0579    1.4762 O   0  0  0  0  0  0  0  0  0  0  0  0
   -1.2967    0.0323    2.3322 C   0  0  0  0  0  0  0  0  0  0  0  0
   -1.5119    0.0943    3.7142 C   0  0  0  0  0  0  0  0  0  0  0  0
   -2.9098    0.1611    4.2629 C   0  0  0  0  0  0  0  0  0  0  0  0
   -0.3894    0.1008    4.5591 C   0  0  0  0  0  0  0  0  0  0  0  0
    0.8906    0.0466    4.0367 C   0  0  0  0  0  0  0  0  0  0  0  0
    1.1262    0.0000    2.6453 C   0  0  0  0  0  0  0  0  0  0  0  0
   -0.0000   -0.0000    1.7676 C   0  0  0  0  0  0  0  0  0  0  0  0
    0.0000    0.0000    0.0000 S   0  0  0  0  0  0  0  0  0  0  0  0
    2.5069   -0.0507    2.1240 C   0  0  0  0  0  0  0  0  0  0  0  0
    2.8585   -0.1284    0.9813 O   0  0  0  0  0  0  0  0  0  0  0  0
    3.8208    0.0112    3.3778 Cl  0  0  0  0  0  0  0  0  0  0  0  0
   -3.7405   -1.0235    0.4378 H   0  0  0  0  0  0  0  0  0  0  0  0
   -2.1897   -1.8807    0.7118 H   0  0  0  0  0  0  0  0  0  0  0  0
   -3.3640   -1.6904    2.0598 H   0  0  0  0  0  0  0  0  0  0  0  0
   -2.9193    0.6251    5.2595 H   0  0  0  0  0  0  0  0  0  0  0  0
   -3.5666    0.7308    3.5907 H   0  0  0  0  0  0  0  0  0  0  0  0
   -3.3445   -0.8481    4.3666 H   0  0  0  0  0  0  0  0  0  0  0  0
   -0.5314    0.1531    5.6406 H   0  0  0  0  0  0  0  0  0  0  0  0
    1.7474    0.0483    4.7069 H   0  0  0  0  0  0  0  0  0  0  0  0
    1.3407   -0.1255   -0.1269 H   0  0  0  0  0  0  0  0  0  0  0  0
  1  2  1  0  0  0  0
  1 16  1  0  0  0  0
  2  3  1  0  0  0  0
  3  4  1  0  0  0  0
  4  5  1  0  0  0  0
  4  6  2  0  0  0  0
  5 19  1  0  0  0  0
  5 17  1  0  0  0  0
  6 20  1  0  0  0  0
  7  6  1  0  0  0  0
  7 21  1  0  0  0  0
  8  7  2  0  0  0  0
  9  3  2  0  0  0  0
  9  8  1  0  0  0  0
 10  9  1  0  0  0  0
 11  8  1  0  0  0  0
 11 13  1  0  0  0  0
 12 11  2  0  0  0  0
 14  1  1  0  0  0  0
 15  1  1  0  0  0  0
 18  5  1  0  0  0  0
 22 10  1  0  0  0  0
M  END
