317601018.xyz
 OpenBabel08132112123D
CCc1cc(S)c(c(c1)I)OC(F)F
 23 23  0  0  0  0  0  0  0  0999 V2000
    3.1257   -1.4763    4.7978 C   0  0  0  0  0  0  0  0  0  0  0  0
    2.6893   -0.0361    4.4964 C   0  0  0  0  0  0  0  0  0  0  0  0
    1.3415    0.0281    3.8163 C   0  0  0  0  0  0  0  0  0  0  0  0
    1.2427   -0.0000    2.4229 C   0  0  0  0  0  0  0  0  0  0  0  0
    0.0000    0.0000    1.7711 C   0  0  0  0  0  0  0  0  0  0  0  0
    0.0000    0.0000    0.0000 S   0  0  0  0  0  0  0  0  0  0  0  0
   -1.1778    0.0253    2.5445 C   0  0  0  0  0  0  0  0  0  0  0  0
   -1.0780    0.0787    3.9426 C   0  0  0  0  0  0  0  0  0  0  0  0
    0.1641    0.0715    4.5772 C   0  0  0  0  0  0  0  0  0  0  0  0
   -2.8338    0.2232    5.1317 I   0  0  0  0  0  0  0  0  0  0  0  0
   -2.4077    0.0753    1.9151 O   0  0  0  0  0  0  0  0  0  0  0  0
   -3.1214   -1.0969    1.8117 C   0  0  0  0  0  0  0  0  0  0  0  0
   -2.7898   -1.7376    0.6619 F   0  0  0  0  0  0  0  0  0  0  0  0
   -4.4144   -0.7740    1.7336 F   0  0  0  0  0  0  0  0  0  0  0  0
    3.1970   -2.0683    3.8718 H   0  0  0  0  0  0  0  0  0  0  0  0
    4.1089   -1.4966    5.2937 H   0  0  0  0  0  0  0  0  0  0  0  0
    2.4000   -1.9783    5.4571 H   0  0  0  0  0  0  0  0  0  0  0  0
    3.4432    0.4519    3.8575 H   0  0  0  0  0  0  0  0  0  0  0  0
    2.6518    0.5414    5.4345 H   0  0  0  0  0  0  0  0  0  0  0  0
    2.1539   -0.0179    1.8197 H   0  0  0  0  0  0  0  0  0  0  0  0
   -1.3398    0.0044   -0.1532 H   0  0  0  0  0  0  0  0  0  0  0  0
    0.2186    0.1127    5.6661 H   0  0  0  0  0  0  0  0  0  0  0  0
   -2.9400   -1.7808    2.6574 H   0  0  0  0  0  0  0  0  0  0  0  0
  1 16  1  0  0  0  0
  1 17  1  0  0  0  0
  2  1  1  0  0  0  0
  2 19  1  0  0  0  0
  3  2  1  0  0  0  0
  3  9  2  0  0  0  0
  4  3  1  0  0  0  0
  5  4  2  0  0  0  0
  5  7  1  0  0  0  0
  6  5  1  0  0  0  0
  7  8  2  0  0  0  0
  8  9  1  0  0  0  0
  8 10  1  0  0  0  0
  9 22  1  0  0  0  0
 11  7  1  0  0  0  0
 12 11  1  0  0  0  0
 12 23  1  0  0  0  0
 13 12  1  0  0  0  0
 14 12  1  0  0  0  0
 15  1  1  0  0  0  0
 18  2  1  0  0  0  0
 20  4  1  0  0  0  0
 21  6  1  0  0  0  0
M  END
