317646751.xyz
 OpenBabel08132112123D
COc1c(OC(F)F)cc(cc1C#N)S
 22 22  0  0  0  0  0  0  0  0999 V2000
   -0.1139    1.1660    6.6501 C   0  0  0  0  0  0  0  0  0  0  0  0
    0.1846   -0.0504    5.9585 O   0  0  0  0  0  0  0  0  0  0  0  0
    0.1212    0.0004    4.6031 C   0  0  0  0  0  0  0  0  0  0  0  0
   -1.1110   -0.0027    3.9302 C   0  0  0  0  0  0  0  0  0  0  0  0
   -2.2819    0.0354    4.6562 O   0  0  0  0  0  0  0  0  0  0  0  0
   -2.6170   -1.1145    5.3418 C   0  0  0  0  0  0  0  0  0  0  0  0
   -3.5344   -0.7657    6.2490 F   0  0  0  0  0  0  0  0  0  0  0  0
   -3.1782   -2.0027    4.4908 F   0  0  0  0  0  0  0  0  0  0  0  0
   -1.1772   -0.0051    2.5397 C   0  0  0  0  0  0  0  0  0  0  0  0
   -0.0000   -0.0000    1.7753 C   0  0  0  0  0  0  0  0  0  0  0  0
    1.2386   -0.0000    2.4292 C   0  0  0  0  0  0  0  0  0  0  0  0
    1.3004    0.0044    3.8322 C   0  0  0  0  0  0  0  0  0  0  0  0
    2.5682    0.0234    4.5024 C   0  0  0  0  0  0  0  0  0  0  0  0
    3.6019    0.0515    5.0285 N   0  0  0  0  0  0  0  0  0  0  0  0
    0.0000    0.0000    0.0000 S   0  0  0  0  0  0  0  0  0  0  0  0
    0.0028    0.9514    7.7199 H   0  0  0  0  0  0  0  0  0  0  0  0
   -1.1457    1.4943    6.4479 H   0  0  0  0  0  0  0  0  0  0  0  0
    0.5943    1.9588    6.3583 H   0  0  0  0  0  0  0  0  0  0  0  0
   -1.7504   -1.5859    5.8331 H   0  0  0  0  0  0  0  0  0  0  0  0
   -2.1655   -0.0157    2.0782 H   0  0  0  0  0  0  0  0  0  0  0  0
    2.1682    0.0000    1.8582 H   0  0  0  0  0  0  0  0  0  0  0  0
   -1.3418   -0.0250   -0.1549 H   0  0  0  0  0  0  0  0  0  0  0  0
  1 16  1  0  0  0  0
  2  1  1  0  0  0  0
  3  2  1  0  0  0  0
  4  3  1  0  0  0  0
  4  5  1  0  0  0  0
  5  6  1  0  0  0  0
  6 19  1  0  0  0  0
  6  7  1  0  0  0  0
  8  6  1  0  0  0  0
  9  4  2  0  0  0  0
 10 11  2  0  0  0  0
 10  9  1  0  0  0  0
 11 12  1  0  0  0  0
 12 13  1  0  0  0  0
 12  3  2  0  0  0  0
 13 14  3  0  0  0  0
 15 10  1  0  0  0  0
 17  1  1  0  0  0  0
 18  1  1  0  0  0  0
 20  9  1  0  0  0  0
 21 11  1  0  0  0  0
 22 15  1  0  0  0  0
M  END
