317629338.xyz
 OpenBabel08132112123D
N#Cc1cc(OC(F)F)c(cc1F)S
 18 18  0  0  0  0  0  0  0  0999 V2000
   -0.2260    0.0611    7.1814 N   0  0  0  0  0  0  0  0  0  0  0  0
   -0.1853    0.0484    6.0215 C   0  0  0  0  0  0  0  0  0  0  0  0
   -0.1132    0.0286    4.5945 C   0  0  0  0  0  0  0  0  0  0  0  0
    1.1228    0.0257    3.9242 C   0  0  0  0  0  0  0  0  0  0  0  0
    1.1804    0.0000    2.5362 C   0  0  0  0  0  0  0  0  0  0  0  0
    2.4115    0.0329    1.9055 O   0  0  0  0  0  0  0  0  0  0  0  0
    3.1443   -1.1320    1.8828 C   0  0  0  0  0  0  0  0  0  0  0  0
    2.7849   -1.8774    0.8102 F   0  0  0  0  0  0  0  0  0  0  0  0
    4.4268   -0.7949    1.7374 F   0  0  0  0  0  0  0  0  0  0  0  0
    0.0000    0.0000    1.7602 C   0  0  0  0  0  0  0  0  0  0  0  0
   -1.2357    0.0159    2.4277 C   0  0  0  0  0  0  0  0  0  0  0  0
   -1.2818    0.0239    3.8134 C   0  0  0  0  0  0  0  0  0  0  0  0
   -2.4641    0.0320    4.4233 F   0  0  0  0  0  0  0  0  0  0  0  0
    0.0000    0.0000    0.0000 S   0  0  0  0  0  0  0  0  0  0  0  0
    2.0495    0.0572    4.4987 H   0  0  0  0  0  0  0  0  0  0  0  0
    3.0019   -1.7404    2.7934 H   0  0  0  0  0  0  0  0  0  0  0  0
   -2.1747    0.0183    1.8722 H   0  0  0  0  0  0  0  0  0  0  0  0
    1.3419   -0.0472   -0.1391 H   0  0  0  0  0  0  0  0  0  0  0  0
  2  1  3  0  0  0  0
  3  2  1  0  0  0  0
  4 15  1  0  0  0  0
  4  3  1  0  0  0  0
  5  4  2  0  0  0  0
  6  5  1  0  0  0  0
  7  6  1  0  0  0  0
  7 16  1  0  0  0  0
  8  7  1  0  0  0  0
  9  7  1  0  0  0  0
 10 11  2  0  0  0  0
 10  5  1  0  0  0  0
 11 12  1  0  0  0  0
 12 13  1  0  0  0  0
 12  3  2  0  0  0  0
 14 10  1  0  0  0  0
 17 11  1  0  0  0  0
 18 14  1  0  0  0  0
M  END
