317621002.xyz
 OpenBabel08132112123D
COC(=O)Cc1c(F)ccc(c1S)CC
 28 28  0  0  0  0  0  0  0  0999 V2000
   -4.5967    2.6326    0.0558 C   0  0  0  0  0  0  0  0  0  0  0  0
   -4.1858    1.4503    0.7428 O   0  0  0  0  0  0  0  0  0  0  0  0
   -2.8779    1.3636    1.0360 C   0  0  0  0  0  0  0  0  0  0  0  0
   -2.0746    2.2212    0.7669 O   0  0  0  0  0  0  0  0  0  0  0  0
   -2.5606    0.0360    1.7020 C   0  0  0  0  0  0  0  0  0  0  0  0
   -1.2530    0.0430    2.4434 C   0  0  0  0  0  0  0  0  0  0  0  0
   -1.2606    0.1050    3.8400 C   0  0  0  0  0  0  0  0  0  0  0  0
   -2.4457    0.1616    4.4773 F   0  0  0  0  0  0  0  0  0  0  0  0
   -0.0984    0.0914    4.5976 C   0  0  0  0  0  0  0  0  0  0  0  0
    1.1241    0.0340    3.9313 C   0  0  0  0  0  0  0  0  0  0  0  0
    1.2060   -0.0000    2.5328 C   0  0  0  0  0  0  0  0  0  0  0  0
   -0.0000   -0.0000    1.7955 C   0  0  0  0  0  0  0  0  0  0  0  0
    0.0000    0.0000    0.0000 S   0  0  0  0  0  0  0  0  0  0  0  0
    2.5696    0.0286    1.8791 C   0  0  0  0  0  0  0  0  0  0  0  0
    2.9666    1.4291    1.3921 C   0  0  0  0  0  0  0  0  0  0  0  0
   -5.6761    2.5312   -0.1097 H   0  0  0  0  0  0  0  0  0  0  0  0
   -4.0683    2.7290   -0.9047 H   0  0  0  0  0  0  0  0  0  0  0  0
   -4.3842    3.5275    0.6597 H   0  0  0  0  0  0  0  0  0  0  0  0
   -3.3923   -0.2330    2.3645 H   0  0  0  0  0  0  0  0  0  0  0  0
   -2.5274   -0.7106    0.8903 H   0  0  0  0  0  0  0  0  0  0  0  0
   -0.1651    0.1298    5.6858 H   0  0  0  0  0  0  0  0  0  0  0  0
    2.0493    0.0290    4.5132 H   0  0  0  0  0  0  0  0  0  0  0  0
    0.8904   -1.0091   -0.1485 H   0  0  0  0  0  0  0  0  0  0  0  0
    2.6090   -0.6771    1.0336 H   0  0  0  0  0  0  0  0  0  0  0  0
    3.3132   -0.3323    2.6075 H   0  0  0  0  0  0  0  0  0  0  0  0
    3.9652    1.4157    0.9270 H   0  0  0  0  0  0  0  0  0  0  0  0
    2.9888    2.1401    2.2326 H   0  0  0  0  0  0  0  0  0  0  0  0
    2.2455    1.8033    0.6508 H   0  0  0  0  0  0  0  0  0  0  0  0
  1 18  1  0  0  0  0
  1  2  1  0  0  0  0
  2  3  1  0  0  0  0
  3  5  1  0  0  0  0
  4  3  2  0  0  0  0
  5 19  1  0  0  0  0
  5  6  1  0  0  0  0
  6  7  1  0  0  0  0
  7  8  1  0  0  0  0
  7  9  2  0  0  0  0
  9 21  1  0  0  0  0
 10 22  1  0  0  0  0
 10  9  1  0  0  0  0
 11 10  2  0  0  0  0
 12  6  2  0  0  0  0
 12 11  1  0  0  0  0
 13 12  1  0  0  0  0
 14 11  1  0  0  0  0
 14 25  1  0  0  0  0
 15 14  1  0  0  0  0
 15 27  1  0  0  0  0
 16  1  1  0  0  0  0
 17  1  1  0  0  0  0
 20  5  1  0  0  0  0
 23 13  1  0  0  0  0
 24 14  1  0  0  0  0
 26 15  1  0  0  0  0
 28 15  1  0  0  0  0
M  END
