317679216.xyz
 OpenBabel08132112123D
COc1cc(C(=O)N)c(cc1[N+](=O)[O-])S
 23 23  0  0  0  0  0  0  0  0999 V2000
    0.6466   -0.0907    6.8178 C   0  0  0  0  0  0  0  0  0  0  0  0
   -0.4782   -0.0889    5.9564 O   0  0  0  0  0  0  0  0  0  0  0  0
   -0.2943   -0.0373    4.6344 C   0  0  0  0  0  0  0  0  0  0  0  0
    0.9668   -0.0004    4.0238 C   0  0  0  0  0  0  0  0  0  0  0  0
    1.1422   -0.0000    2.6355 C   0  0  0  0  0  0  0  0  0  0  0  0
    2.6117    0.0116    2.2241 C   0  0  0  0  0  0  0  0  0  0  0  0
    3.4664    0.3384    3.0326 O   0  0  0  0  0  0  0  0  0  0  0  0
    2.9171   -0.3917    0.9676 N   0  0  0  0  0  0  0  0  0  0  0  0
   -0.0000    0.0000    1.8010 C   0  0  0  0  0  0  0  0  0  0  0  0
   -1.2646   -0.0377    2.3957 C   0  0  0  0  0  0  0  0  0  0  0  0
   -1.4177   -0.0552    3.7776 C   0  0  0  0  0  0  0  0  0  0  0  0
   -2.7941   -0.0657    4.2984 N   0  0  0  0  0  0  0  0  0  0  0  0
   -3.6375   -0.6237    3.6108 O   0  0  0  0  0  0  0  0  0  0  0  0
   -3.0091    0.4989    5.3546 O   0  0  0  0  0  0  0  0  0  0  0  0
    0.0000    0.0000    0.0000 S   0  0  0  0  0  0  0  0  0  0  0  0
    1.2456    0.8275    6.6987 H   0  0  0  0  0  0  0  0  0  0  0  0
    1.2904   -0.9685    6.6396 H   0  0  0  0  0  0  0  0  0  0  0  0
    0.2455   -0.1331    7.8376 H   0  0  0  0  0  0  0  0  0  0  0  0
    1.8776    0.0299    4.6187 H   0  0  0  0  0  0  0  0  0  0  0  0
    3.8993   -0.4339    0.7225 H   0  0  0  0  0  0  0  0  0  0  0  0
    2.2070   -0.6973    0.3094 H   0  0  0  0  0  0  0  0  0  0  0  0
   -2.1639   -0.0441    1.7812 H   0  0  0  0  0  0  0  0  0  0  0  0
    0.6720    1.1638   -0.1750 H   0  0  0  0  0  0  0  0  0  0  0  0
  1 18  1  0  0  0  0
  2  1  1  0  0  0  0
  3  2  1  0  0  0  0
  4 19  1  0  0  0  0
  4  3  1  0  0  0  0
  5  4  2  0  0  0  0
  6  5  1  0  0  0  0
  6  7  2  0  0  0  0
  8  6  1  0  0  0  0
  9 10  2  0  0  0  0
  9  5  1  0  0  0  0
 10 11  1  0  0  0  0
 11 12  1  0  0  0  0
 11  3  2  0  0  0  0
 12 14  2  0  0  0  0
 13 12  2  0  0  0  0
 15  9  1  0  0  0  0
 16  1  1  0  0  0  0
 17  1  1  0  0  0  0
 20  8  1  0  0  0  0
 21  8  1  0  0  0  0
 22 10  1  0  0  0  0
 23 15  1  0  0  0  0
M  END
