317650875.xyz
 OpenBabel08132112123D
N#Cc1cc(cc(c1F)S)C(=O)N
 18 18  0  0  0  0  0  0  0  0999 V2000
   -3.3899    0.0454    5.2501 N   0  0  0  0  0  0  0  0  0  0  0  0
   -2.3955    0.0364    4.6528 C   0  0  0  0  0  0  0  0  0  0  0  0
   -1.1590    0.0231    3.9283 C   0  0  0  0  0  0  0  0  0  0  0  0
    0.0744    0.0304    4.5947 C   0  0  0  0  0  0  0  0  0  0  0  0
    1.2643    0.0023    3.8622 C   0  0  0  0  0  0  0  0  0  0  0  0
    1.2201    0.0000    2.4629 C   0  0  0  0  0  0  0  0  0  0  0  0
   -0.0000   -0.0000    1.7710 C   0  0  0  0  0  0  0  0  0  0  0  0
   -1.1785    0.0037    2.5250 C   0  0  0  0  0  0  0  0  0  0  0  0
   -2.3582   -0.0006    1.8983 F   0  0  0  0  0  0  0  0  0  0  0  0
    0.0000    0.0000    0.0000 S   0  0  0  0  0  0  0  0  0  0  0  0
    2.5525    0.0192    4.6475 C   0  0  0  0  0  0  0  0  0  0  0  0
    2.5799    0.3868    5.8076 O   0  0  0  0  0  0  0  0  0  0  0  0
    3.6714   -0.3858    3.9742 N   0  0  0  0  0  0  0  0  0  0  0  0
    0.1219    0.0620    5.6830 H   0  0  0  0  0  0  0  0  0  0  0  0
    2.1443    0.0313    1.8823 H   0  0  0  0  0  0  0  0  0  0  0  0
   -1.3417    0.0462   -0.1448 H   0  0  0  0  0  0  0  0  0  0  0  0
    3.6115   -0.9370    3.1288 H   0  0  0  0  0  0  0  0  0  0  0  0
    4.5272   -0.4461    4.5144 H   0  0  0  0  0  0  0  0  0  0  0  0
  2  1  3  0  0  0  0
  3  4  1  0  0  0  0
  3  2  1  0  0  0  0
  4 14  1  0  0  0  0
  5  4  2  0  0  0  0
  5 11  1  0  0  0  0
  6  5  1  0  0  0  0
  7  6  2  0  0  0  0
  7  8  1  0  0  0  0
  8  3  2  0  0  0  0
  9  8  1  0  0  0  0
 10  7  1  0  0  0  0
 11 12  2  0  0  0  0
 13 18  1  0  0  0  0
 13 11  1  0  0  0  0
 15  6  1  0  0  0  0
 16 10  1  0  0  0  0
 17 13  1  0  0  0  0
M  END
