317654302.xyz
 OpenBabel08132112123D
COc1cc(OC(F)F)c(c(c1)C(=O)CBr)S
 26 26  0  0  0  0  0  0  0  0999 V2000
    0.9341   -0.5604    6.7307 C   0  0  0  0  0  0  0  0  0  0  0  0
   -0.2258   -0.5160    5.9253 O   0  0  0  0  0  0  0  0  0  0  0  0
   -0.0861   -0.3460    4.5925 C   0  0  0  0  0  0  0  0  0  0  0  0
   -1.2794   -0.2848    3.8526 C   0  0  0  0  0  0  0  0  0  0  0  0
   -1.2246   -0.1468    2.4722 C   0  0  0  0  0  0  0  0  0  0  0  0
   -2.3648   -0.1078    1.7017 O   0  0  0  0  0  0  0  0  0  0  0  0
   -3.4470   -0.8665    2.0628 C   0  0  0  0  0  0  0  0  0  0  0  0
   -4.2036   -1.0140    0.9716 F   0  0  0  0  0  0  0  0  0  0  0  0
   -4.1920   -0.2235    2.9953 F   0  0  0  0  0  0  0  0  0  0  0  0
    0.0000    0.0000    1.7817 C   0  0  0  0  0  0  0  0  0  0  0  0
    1.1835    0.0000    2.5421 C   0  0  0  0  0  0  0  0  0  0  0  0
    1.1348   -0.2126    3.9329 C   0  0  0  0  0  0  0  0  0  0  0  0
    2.5779    0.2231    2.0111 C   0  0  0  0  0  0  0  0  0  0  0  0
    3.5229   -0.3374    2.5254 O   0  0  0  0  0  0  0  0  0  0  0  0
    2.8500    1.2392    0.9093 C   0  0  0  0  0  0  0  0  0  0  0  0
    2.0493    2.9799    1.3343 Br  0  0  0  0  0  0  0  0  0  0  0  0
    0.0000    0.0000    0.0000 S   0  0  0  0  0  0  0  0  0  0  0  0
    1.5103    0.3791    6.6645 H   0  0  0  0  0  0  0  0  0  0  0  0
    0.5904   -0.6999    7.7635 H   0  0  0  0  0  0  0  0  0  0  0  0
    1.5913   -1.4021    6.4508 H   0  0  0  0  0  0  0  0  0  0  0  0
   -2.2307   -0.3362    4.3805 H   0  0  0  0  0  0  0  0  0  0  0  0
   -3.1520   -1.8513    2.4672 H   0  0  0  0  0  0  0  0  0  0  0  0
    2.0828   -0.2457    4.4651 H   0  0  0  0  0  0  0  0  0  0  0  0
    3.9340    1.3789    0.8444 H   0  0  0  0  0  0  0  0  0  0  0  0
    2.4274    0.9406   -0.0551 H   0  0  0  0  0  0  0  0  0  0  0  0
   -1.1358    0.7143   -0.1545 H   0  0  0  0  0  0  0  0  0  0  0  0
  1 19  1  0  0  0  0
  2  1  1  0  0  0  0
  3  2  1  0  0  0  0
  4 21  1  0  0  0  0
  4  3  2  0  0  0  0
  5  4  1  0  0  0  0
  6  7  1  0  0  0  0
  6  5  1  0  0  0  0
  7 22  1  0  0  0  0
  7  9  1  0  0  0  0
  8  7  1  0  0  0  0
 10  5  2  0  0  0  0
 10 11  1  0  0  0  0
 11 12  2  0  0  0  0
 12 23  1  0  0  0  0
 12  3  1  0  0  0  0
 13 14  2  0  0  0  0
 13 11  1  0  0  0  0
 15 16  1  0  0  0  0
 15 13  1  0  0  0  0
 17 10  1  0  0  0  0
 18  1  1  0  0  0  0
 20  1  1  0  0  0  0
 24 15  1  0  0  0  0
 25 15  1  0  0  0  0
 26 17  1  0  0  0  0
M  END
