317695859.xyz
 OpenBabel08132112123D
[O-][N+](=O)c1c(ccc(c1S)C(=O)N)OC(F)(F)F
 23 23  0  0  0  0  0  0  0  0999 V2000
    2.6316   -0.7961    0.8169 O   0  0  0  0  0  0  0  0  0  0  0  0
    2.4934    0.0418    1.6907 N   0  0  0  0  0  0  0  0  0  0  0  0
    3.2909    0.9137    1.9781 O   0  0  0  0  0  0  0  0  0  0  0  0
    1.2329    0.0000    2.4535 C   0  0  0  0  0  0  0  0  0  0  0  0
    1.3134   -0.0012    3.8491 C   0  0  0  0  0  0  0  0  0  0  0  0
    0.1529    0.0107    4.6171 C   0  0  0  0  0  0  0  0  0  0  0  0
   -1.0737    0.0257    3.9597 C   0  0  0  0  0  0  0  0  0  0  0  0
   -1.1809    0.0007    2.5619 C   0  0  0  0  0  0  0  0  0  0  0  0
   -0.0000    0.0000    1.7671 C   0  0  0  0  0  0  0  0  0  0  0  0
    0.0000    0.0000    0.0000 S   0  0  0  0  0  0  0  0  0  0  0  0
   -2.5589   -0.0102    1.9524 C   0  0  0  0  0  0  0  0  0  0  0  0
   -2.8387    0.5604    0.9048 O   0  0  0  0  0  0  0  0  0  0  0  0
   -3.5058   -0.6828    2.6637 N   0  0  0  0  0  0  0  0  0  0  0  0
    2.5628   -0.0926    4.4231 O   0  0  0  0  0  0  0  0  0  0  0  0
    2.9973    0.9004    5.2472 C   0  0  0  0  0  0  0  0  0  0  0  0
    2.7591    2.1100    4.7470 F   0  0  0  0  0  0  0  0  0  0  0  0
    2.3938    0.8389    6.4498 F   0  0  0  0  0  0  0  0  0  0  0  0
    4.2945    0.7353    5.4250 F   0  0  0  0  0  0  0  0  0  0  0  0
    0.2189    0.0047    5.7037 H   0  0  0  0  0  0  0  0  0  0  0  0
   -1.9857    0.0643    4.5576 H   0  0  0  0  0  0  0  0  0  0  0  0
   -1.2790    0.4680   -0.0592 H   0  0  0  0  0  0  0  0  0  0  0  0
   -4.4340   -0.7333    2.2587 H   0  0  0  0  0  0  0  0  0  0  0  0
   -3.2613   -1.3398    3.3920 H   0  0  0  0  0  0  0  0  0  0  0  0
  1  2  2  0  0  0  0
  2  3  2  0  0  0  0
  2  4  1  0  0  0  0
  4  5  1  0  0  0  0
  5 14  1  0  0  0  0
  5  6  2  0  0  0  0
  6 19  1  0  0  0  0
  7 20  1  0  0  0  0
  7  6  1  0  0  0  0
  8  7  2  0  0  0  0
  9  4  2  0  0  0  0
  9  8  1  0  0  0  0
 10  9  1  0  0  0  0
 11  8  1  0  0  0  0
 11 13  1  0  0  0  0
 12 11  2  0  0  0  0
 13 23  1  0  0  0  0
 14 15  1  0  0  0  0
 15 18  1  0  0  0  0
 15 17  1  0  0  0  0
 16 15  1  0  0  0  0
 21 10  1  0  0  0  0
 22 13  1  0  0  0  0
M  END
