317680759.xyz
 OpenBabel08132112123D
N#CCc1c(S)cc(cc1[N+](=O)[O-])OC
 23 23  0  0  0  0  0  0  0  0999 V2000
   -3.1073   -2.2356    0.7719 N   0  0  0  0  0  0  0  0  0  0  0  0
   -2.8761   -1.2073    1.2538 C   0  0  0  0  0  0  0  0  0  0  0  0
   -2.5352    0.0928    1.8379 C   0  0  0  0  0  0  0  0  0  0  0  0
   -1.1916    0.0717    2.5430 C   0  0  0  0  0  0  0  0  0  0  0  0
    0.0000   -0.0000    1.7905 C   0  0  0  0  0  0  0  0  0  0  0  0
    0.0000    0.0000    0.0000 S   0  0  0  0  0  0  0  0  0  0  0  0
    1.2602   -0.0000    2.4063 C   0  0  0  0  0  0  0  0  0  0  0  0
    1.3698    0.0480    3.8014 C   0  0  0  0  0  0  0  0  0  0  0  0
    0.2018    0.0690    4.5738 C   0  0  0  0  0  0  0  0  0  0  0  0
   -1.0353    0.0916    3.9429 C   0  0  0  0  0  0  0  0  0  0  0  0
   -2.1973    0.1531    4.8638 N   0  0  0  0  0  0  0  0  0  0  0  0
   -2.1012   -0.4522    5.9146 O   0  0  0  0  0  0  0  0  0  0  0  0
   -3.1606    0.8305    4.5353 O   0  0  0  0  0  0  0  0  0  0  0  0
    2.5348    0.0527    4.4774 O   0  0  0  0  0  0  0  0  0  0  0  0
    3.7506    0.0120    3.7569 C   0  0  0  0  0  0  0  0  0  0  0  0
   -3.3317    0.4038    2.5225 H   0  0  0  0  0  0  0  0  0  0  0  0
   -2.4923    0.8253    1.0145 H   0  0  0  0  0  0  0  0  0  0  0  0
   -0.8983   -0.9985   -0.1756 H   0  0  0  0  0  0  0  0  0  0  0  0
    2.1435   -0.0619    1.7733 H   0  0  0  0  0  0  0  0  0  0  0  0
    0.2665    0.0666    5.6601 H   0  0  0  0  0  0  0  0  0  0  0  0
    3.8565    0.8861    3.0909 H   0  0  0  0  0  0  0  0  0  0  0  0
    4.5540    0.0300    4.5039 H   0  0  0  0  0  0  0  0  0  0  0  0
    3.8356   -0.9107    3.1570 H   0  0  0  0  0  0  0  0  0  0  0  0
  1  2  3  0  0  0  0
  2  3  1  0  0  0  0
  3 16  1  0  0  0  0
  3  4  1  0  0  0  0
  4 10  2  0  0  0  0
  5  7  2  0  0  0  0
  5  4  1  0  0  0  0
  6  5  1  0  0  0  0
  7  8  1  0  0  0  0
  8 14  1  0  0  0  0
  8  9  2  0  0  0  0
  9 20  1  0  0  0  0
 10  9  1  0  0  0  0
 10 11  1  0  0  0  0
 11 12  2  0  0  0  0
 13 11  2  0  0  0  0
 15 14  1  0  0  0  0
 15 22  1  0  0  0  0
 17  3  1  0  0  0  0
 18  6  1  0  0  0  0
 19  7  1  0  0  0  0
 21 15  1  0  0  0  0
 23 15  1  0  0  0  0
M  END
