317674837.xyz
 OpenBabel08132112123D
FC(c1ccc(c(c1C)S)C(=O)C)F
 24 24  0  0  0  0  0  0  0  0999 V2000
   -3.3392   -1.1782    4.2918 F   0  0  0  0  0  0  0  0  0  0  0  0
   -2.5734   -0.0953    4.6151 C   0  0  0  0  0  0  0  0  0  0  0  0
   -1.2809   -0.0797    3.8406 C   0  0  0  0  0  0  0  0  0  0  0  0
   -0.0918   -0.1403    4.5742 C   0  0  0  0  0  0  0  0  0  0  0  0
    1.1385   -0.1139    3.9267 C   0  0  0  0  0  0  0  0  0  0  0  0
    1.1966    0.0000    2.5337 C   0  0  0  0  0  0  0  0  0  0  0  0
    0.0000   -0.0000    1.7904 C   0  0  0  0  0  0  0  0  0  0  0  0
   -1.2586   -0.0264    2.4327 C   0  0  0  0  0  0  0  0  0  0  0  0
   -2.5173   -0.0074    1.6037 C   0  0  0  0  0  0  0  0  0  0  0  0
    0.0000    0.0000    0.0000 S   0  0  0  0  0  0  0  0  0  0  0  0
    2.5714    0.1327    1.9188 C   0  0  0  0  0  0  0  0  0  0  0  0
    3.4137   -0.7189    2.1024 O   0  0  0  0  0  0  0  0  0  0  0  0
    2.8814    1.4296    1.1990 C   0  0  0  0  0  0  0  0  0  0  0  0
   -3.3261    1.0118    4.3507 F   0  0  0  0  0  0  0  0  0  0  0  0
   -2.3911   -0.1267    5.7026 H   0  0  0  0  0  0  0  0  0  0  0  0
   -0.1316   -0.2047    5.6643 H   0  0  0  0  0  0  0  0  0  0  0  0
    2.0698   -0.1600    4.4945 H   0  0  0  0  0  0  0  0  0  0  0  0
   -3.4241   -0.0717    2.2098 H   0  0  0  0  0  0  0  0  0  0  0  0
   -2.5744    0.9167    1.0043 H   0  0  0  0  0  0  0  0  0  0  0  0
   -2.5126   -0.8482    0.8913 H   0  0  0  0  0  0  0  0  0  0  0  0
    1.2203   -0.5578   -0.1574 H   0  0  0  0  0  0  0  0  0  0  0  0
    3.1069    2.1846    1.9724 H   0  0  0  0  0  0  0  0  0  0  0  0
    2.0311    1.8022    0.6127 H   0  0  0  0  0  0  0  0  0  0  0  0
    3.7712    1.3028    0.5672 H   0  0  0  0  0  0  0  0  0  0  0  0
  1  2  1  0  0  0  0
  2 15  1  0  0  0  0
  3  4  2  0  0  0  0
  3  2  1  0  0  0  0
  4 16  1  0  0  0  0
  5 17  1  0  0  0  0
  5  4  1  0  0  0  0
  6  5  2  0  0  0  0
  7  8  2  0  0  0  0
  7  6  1  0  0  0  0
  8  3  1  0  0  0  0
  9 18  1  0  0  0  0
  9  8  1  0  0  0  0
 10  7  1  0  0  0  0
 11 12  2  0  0  0  0
 11  6  1  0  0  0  0
 13 11  1  0  0  0  0
 13 22  1  0  0  0  0
 14  2  1  0  0  0  0
 19  9  1  0  0  0  0
 20  9  1  0  0  0  0
 21 10  1  0  0  0  0
 23 13  1  0  0  0  0
 24 13  1  0  0  0  0
M  END
