317657480.xyz
 OpenBabel08132112123D
[O-][N+](=O)c1cc(OC(F)(F)F)c(c(c1)S)C
 22 22  0  0  0  0  0  0  0  0999 V2000
   -2.2916   -0.0173    5.8923 O   0  0  0  0  0  0  0  0  0  0  0  0
   -2.3800   -0.0166    4.6766 N   0  0  0  0  0  0  0  0  0  0  0  0
   -3.4252   -0.0158    4.0472 O   0  0  0  0  0  0  0  0  0  0  0  0
   -1.1205   -0.0168    3.9037 C   0  0  0  0  0  0  0  0  0  0  0  0
    0.0876   -0.0191    4.5913 C   0  0  0  0  0  0  0  0  0  0  0  0
    1.2544   -0.0184    3.8324 C   0  0  0  0  0  0  0  0  0  0  0  0
    2.4796    0.0186    4.4968 O   0  0  0  0  0  0  0  0  0  0  0  0
    2.9736   -1.1458    4.9838 C   0  0  0  0  0  0  0  0  0  0  0  0
    4.1732   -0.8985    5.4850 F   0  0  0  0  0  0  0  0  0  0  0  0
    3.0854   -2.0790    4.0267 F   0  0  0  0  0  0  0  0  0  0  0  0
    2.1999   -1.6609    5.9488 F   0  0  0  0  0  0  0  0  0  0  0  0
    1.2566   -0.0000    2.4290 C   0  0  0  0  0  0  0  0  0  0  0  0
    0.0000   -0.0000    1.7764 C   0  0  0  0  0  0  0  0  0  0  0  0
   -1.1885   -0.0095    2.5145 C   0  0  0  0  0  0  0  0  0  0  0  0
    0.0000    0.0000    0.0000 S   0  0  0  0  0  0  0  0  0  0  0  0
    2.5347    0.0119    1.6424 C   0  0  0  0  0  0  0  0  0  0  0  0
    0.1122   -0.0227    5.6782 H   0  0  0  0  0  0  0  0  0  0  0  0
   -2.1682   -0.0101    2.0391 H   0  0  0  0  0  0  0  0  0  0  0  0
   -1.3432    0.0326   -0.1415 H   0  0  0  0  0  0  0  0  0  0  0  0
    2.6798   -0.9520    1.1260 H   0  0  0  0  0  0  0  0  0  0  0  0
    2.5031    0.7938    0.8665 H   0  0  0  0  0  0  0  0  0  0  0  0
    3.4024    0.1922    2.2863 H   0  0  0  0  0  0  0  0  0  0  0  0
  2  1  2  0  0  0  0
  3  2  2  0  0  0  0
  4  5  1  0  0  0  0
  4  2  1  0  0  0  0
  5 17  1  0  0  0  0
  6  7  1  0  0  0  0
  6  5  2  0  0  0  0
  7  8  1  0  0  0  0
  8  9  1  0  0  0  0
  8 11  1  0  0  0  0
 10  8  1  0  0  0  0
 12  6  1  0  0  0  0
 13 12  2  0  0  0  0
 13 14  1  0  0  0  0
 14  4  2  0  0  0  0
 15 13  1  0  0  0  0
 16 22  1  0  0  0  0
 16 12  1  0  0  0  0
 18 14  1  0  0  0  0
 19 15  1  0  0  0  0
 20 16  1  0  0  0  0
 21 16  1  0  0  0  0
M  END
