317621143.xyz
 OpenBabel08132112123D
CCOc1cc(S)c(c(c1)C#N)OC(F)F
 25 25  0  0  0  0  0  0  0  0999 V2000
   -3.7613    0.1484    6.4540 C   0  0  0  0  0  0  0  0  0  0  0  0
   -2.3121    0.1378    6.0157 C   0  0  0  0  0  0  0  0  0  0  0  0
   -2.2841    0.0877    4.5934 O   0  0  0  0  0  0  0  0  0  0  0  0
   -1.0983    0.0661    3.9516 C   0  0  0  0  0  0  0  0  0  0  0  0
   -1.1625    0.0308    2.5477 C   0  0  0  0  0  0  0  0  0  0  0  0
    0.0000    0.0000    1.7775 C   0  0  0  0  0  0  0  0  0  0  0  0
    0.0000    0.0000    0.0000 S   0  0  0  0  0  0  0  0  0  0  0  0
    1.2535    0.0000    2.4182 C   0  0  0  0  0  0  0  0  0  0  0  0
    1.3218    0.0591    3.8172 C   0  0  0  0  0  0  0  0  0  0  0  0
    0.1463    0.0914    4.5911 C   0  0  0  0  0  0  0  0  0  0  0  0
    2.5931    0.1154    4.4796 C   0  0  0  0  0  0  0  0  0  0  0  0
    3.5945    0.1809    5.0610 N   0  0  0  0  0  0  0  0  0  0  0  0
    2.4062   -0.0014    1.6628 O   0  0  0  0  0  0  0  0  0  0  0  0
    2.8945   -1.2416    1.2903 C   0  0  0  0  0  0  0  0  0  0  0  0
    3.3678   -1.9017    2.3684 F   0  0  0  0  0  0  0  0  0  0  0  0
    3.9045   -1.0160    0.4504 F   0  0  0  0  0  0  0  0  0  0  0  0
   -3.8241    0.1871    7.5520 H   0  0  0  0  0  0  0  0  0  0  0  0
   -4.2783   -0.7585    6.1061 H   0  0  0  0  0  0  0  0  0  0  0  0
   -4.2844    1.0247    6.0428 H   0  0  0  0  0  0  0  0  0  0  0  0
   -1.7855    1.0446    6.3660 H   0  0  0  0  0  0  0  0  0  0  0  0
   -1.7792   -0.7383    6.4289 H   0  0  0  0  0  0  0  0  0  0  0  0
   -2.1498    0.0387    2.0838 H   0  0  0  0  0  0  0  0  0  0  0  0
   -1.3243   -0.2361   -0.1299 H   0  0  0  0  0  0  0  0  0  0  0  0
    0.2363    0.1391    5.6737 H   0  0  0  0  0  0  0  0  0  0  0  0
    2.1235   -1.8673    0.8075 H   0  0  0  0  0  0  0  0  0  0  0  0
  1 17  1  0  0  0  0
  2 20  1  0  0  0  0
  2 21  1  0  0  0  0
  2  1  1  0  0  0  0
  3  2  1  0  0  0  0
  4 10  1  0  0  0  0
  4  3  1  0  0  0  0
  5  4  2  0  0  0  0
  6  8  2  0  0  0  0
  6  5  1  0  0  0  0
  7  6  1  0  0  0  0
  8  9  1  0  0  0  0
  9 11  1  0  0  0  0
  9 10  2  0  0  0  0
 10 24  1  0  0  0  0
 11 12  3  0  0  0  0
 13  8  1  0  0  0  0
 14 13  1  0  0  0  0
 14 15  1  0  0  0  0
 16 14  1  0  0  0  0
 18  1  1  0  0  0  0
 19  1  1  0  0  0  0
 22  5  1  0  0  0  0
 23  7  1  0  0  0  0
 25 14  1  0  0  0  0
M  END
