317683067.xyz
 OpenBabel08132112123D
BrCC(=O)c1ccc(c(c1OC)C(F)(F)F)S
 25 25  0  0  0  0  0  0  0  0999 V2000
   -0.6963    2.1194    7.4565 Br  0  0  0  0  0  0  0  0  0  0  0  0
   -0.3892    0.1992    7.1319 C   0  0  0  0  0  0  0  0  0  0  0  0
    0.6671    0.0442    6.0511 C   0  0  0  0  0  0  0  0  0  0  0  0
    1.8179   -0.1399    6.3993 O   0  0  0  0  0  0  0  0  0  0  0  0
    0.3313    0.0827    4.5864 C   0  0  0  0  0  0  0  0  0  0  0  0
    1.4342   -0.0103    3.7189 C   0  0  0  0  0  0  0  0  0  0  0  0
    1.2835   -0.0000    2.3463 C   0  0  0  0  0  0  0  0  0  0  0  0
    0.0000   -0.0000    1.7719 C   0  0  0  0  0  0  0  0  0  0  0  0
   -1.1364   -0.0091    2.6158 C   0  0  0  0  0  0  0  0  0  0  0  0
   -0.9605    0.1450    4.0168 C   0  0  0  0  0  0  0  0  0  0  0  0
   -2.0258    0.3205    4.8382 O   0  0  0  0  0  0  0  0  0  0  0  0
   -2.7696    1.5344    4.6950 C   0  0  0  0  0  0  0  0  0  0  0  0
   -2.5022   -0.2760    2.0131 C   0  0  0  0  0  0  0  0  0  0  0  0
   -3.4385   -0.6094    2.9038 F   0  0  0  0  0  0  0  0  0  0  0  0
   -2.4479   -1.2876    1.1295 F   0  0  0  0  0  0  0  0  0  0  0  0
   -2.9742    0.8031    1.3304 F   0  0  0  0  0  0  0  0  0  0  0  0
    0.0000    0.0000    0.0000 S   0  0  0  0  0  0  0  0  0  0  0  0
   -1.3596   -0.2285    6.8719 H   0  0  0  0  0  0  0  0  0  0  0  0
    0.0187   -0.1995    8.0659 H   0  0  0  0  0  0  0  0  0  0  0  0
    2.4242   -0.0554    4.1745 H   0  0  0  0  0  0  0  0  0  0  0  0
    2.1604    0.0059    1.6958 H   0  0  0  0  0  0  0  0  0  0  0  0
   -3.5241    1.5259    5.4909 H   0  0  0  0  0  0  0  0  0  0  0  0
   -3.2721    1.5979    3.7200 H   0  0  0  0  0  0  0  0  0  0  0  0
   -2.1083    2.4022    4.8355 H   0  0  0  0  0  0  0  0  0  0  0  0
   -1.2786    0.3748   -0.2049 H   0  0  0  0  0  0  0  0  0  0  0  0
  2  1  1  0  0  0  0
  2 19  1  0  0  0  0
  3  4  2  0  0  0  0
  3  2  1  0  0  0  0
  5  3  1  0  0  0  0
  6 20  1  0  0  0  0
  6  5  2  0  0  0  0
  7  6  1  0  0  0  0
  8  7  2  0  0  0  0
  8  9  1  0  0  0  0
  9 10  2  0  0  0  0
 10  5  1  0  0  0  0
 10 11  1  0  0  0  0
 12 24  1  0  0  0  0
 12 11  1  0  0  0  0
 12 22  1  0  0  0  0
 13  9  1  0  0  0  0
 13 14  1  0  0  0  0
 15 13  1  0  0  0  0
 16 13  1  0  0  0  0
 17  8  1  0  0  0  0
 18  2  1  0  0  0  0
 21  7  1  0  0  0  0
 23 12  1  0  0  0  0
 25 17  1  0  0  0  0
M  END
