317651720.xyz
 OpenBabel08132112123D
COC(=O)c1c(S)ccc(c1OC)CC
 29 29  0  0  0  0  0  0  0  0999 V2000
   -4.6214   -1.2084    2.1827 C   0  0  0  0  0  0  0  0  0  0  0  0
   -3.3025   -1.0242    2.6923 O   0  0  0  0  0  0  0  0  0  0  0  0
   -2.5093   -0.1970    2.0000 C   0  0  0  0  0  0  0  0  0  0  0  0
   -2.8811    0.3351    0.9711 O   0  0  0  0  0  0  0  0  0  0  0  0
   -1.1520   -0.0551    2.6039 C   0  0  0  0  0  0  0  0  0  0  0  0
    0.0000    0.0000    1.7761 C   0  0  0  0  0  0  0  0  0  0  0  0
    0.0000    0.0000    0.0000 S   0  0  0  0  0  0  0  0  0  0  0  0
    1.2688    0.0000    2.3762 C   0  0  0  0  0  0  0  0  0  0  0  0
    1.4034   -0.0261    3.7591 C   0  0  0  0  0  0  0  0  0  0  0  0
    0.2890   -0.0126    4.6060 C   0  0  0  0  0  0  0  0  0  0  0  0
   -0.9825   -0.0235    4.0113 C   0  0  0  0  0  0  0  0  0  0  0  0
   -2.0537   -0.0165    4.8620 O   0  0  0  0  0  0  0  0  0  0  0  0
   -2.8678    1.1407    4.8653 C   0  0  0  0  0  0  0  0  0  0  0  0
    0.4324   -0.0236    6.1087 C   0  0  0  0  0  0  0  0  0  0  0  0
    0.1625   -1.4031    6.7244 C   0  0  0  0  0  0  0  0  0  0  0  0
   -4.5930   -1.6344    1.1688 H   0  0  0  0  0  0  0  0  0  0  0  0
   -5.1616   -0.2502    2.1402 H   0  0  0  0  0  0  0  0  0  0  0  0
   -5.1190   -1.8978    2.8751 H   0  0  0  0  0  0  0  0  0  0  0  0
   -1.2878    0.3923   -0.1423 H   0  0  0  0  0  0  0  0  0  0  0  0
    2.1559    0.0340    1.7405 H   0  0  0  0  0  0  0  0  0  0  0  0
    2.4042   -0.0223    4.1997 H   0  0  0  0  0  0  0  0  0  0  0  0
   -3.3381    1.3309    3.8854 H   0  0  0  0  0  0  0  0  0  0  0  0
   -3.6605    0.9706    5.6065 H   0  0  0  0  0  0  0  0  0  0  0  0
   -2.2867    2.0352    5.1533 H   0  0  0  0  0  0  0  0  0  0  0  0
    1.4503    0.3082    6.3698 H   0  0  0  0  0  0  0  0  0  0  0  0
   -0.2632    0.7080    6.5497 H   0  0  0  0  0  0  0  0  0  0  0  0
    0.2855   -1.3785    7.8190 H   0  0  0  0  0  0  0  0  0  0  0  0
    0.8557   -2.1576    6.3198 H   0  0  0  0  0  0  0  0  0  0  0  0
   -0.8640   -1.7286    6.5001 H   0  0  0  0  0  0  0  0  0  0  0  0
  1  2  1  0  0  0  0
  1 18  1  0  0  0  0
  3  5  1  0  0  0  0
  3  2  1  0  0  0  0
  4  3  2  0  0  0  0
  5 11  2  0  0  0  0
  6  8  2  0  0  0  0
  6  5  1  0  0  0  0
  7  6  1  0  0  0  0
  8  9  1  0  0  0  0
  9 21  1  0  0  0  0
  9 10  2  0  0  0  0
 10 14  1  0  0  0  0
 11 10  1  0  0  0  0
 11 12  1  0  0  0  0
 12 13  1  0  0  0  0
 13 24  1  0  0  0  0
 13 23  1  0  0  0  0
 14 25  1  0  0  0  0
 14 26  1  0  0  0  0
 14 15  1  0  0  0  0
 15 27  1  0  0  0  0
 16  1  1  0  0  0  0
 17  1  1  0  0  0  0
 19  7  1  0  0  0  0
 20  8  1  0  0  0  0
 22 13  1  0  0  0  0
 28 15  1  0  0  0  0
 29 15  1  0  0  0  0
M  END
