317661044.xyz
 OpenBabel08132112123D
Sc1cc(c(c(c1)C(F)(F)F)C(=O)C)C(F)(F)F
 24 24  0  0  0  0  0  0  0  0999 V2000
    0.0000    0.0000    0.0000 S   0  0  0  0  0  0  0  0  0  0  0  0
   -0.0000    0.0000    1.7715 C   0  0  0  0  0  0  0  0  0  0  0  0
   -1.1695    0.0036    2.5409 C   0  0  0  0  0  0  0  0  0  0  0  0
   -1.1046   -0.0040    3.9346 C   0  0  0  0  0  0  0  0  0  0  0  0
    0.1312    0.0036    4.6091 C   0  0  0  0  0  0  0  0  0  0  0  0
    1.2990    0.0103    3.8243 C   0  0  0  0  0  0  0  0  0  0  0  0
    1.2353   -0.0000    2.4297 C   0  0  0  0  0  0  0  0  0  0  0  0
    2.6776    0.0620    4.4516 C   0  0  0  0  0  0  0  0  0  0  0  0
    2.7404   -0.6263    5.6015 F   0  0  0  0  0  0  0  0  0  0  0  0
    3.6158   -0.4338    3.6326 F   0  0  0  0  0  0  0  0  0  0  0  0
    3.0379    1.3337    4.7320 F   0  0  0  0  0  0  0  0  0  0  0  0
    0.1707   -0.0646    6.1361 C   0  0  0  0  0  0  0  0  0  0  0  0
   -0.1567   -1.0861    6.6884 O   0  0  0  0  0  0  0  0  0  0  0  0
    0.5525    1.1962    6.8698 C   0  0  0  0  0  0  0  0  0  0  0  0
   -2.4143   -0.0367    4.7015 C   0  0  0  0  0  0  0  0  0  0  0  0
   -2.3992    0.8215    5.7409 F   0  0  0  0  0  0  0  0  0  0  0  0
   -3.4487    0.3189    3.9178 F   0  0  0  0  0  0  0  0  0  0  0  0
   -2.6843   -1.2526    5.1848 F   0  0  0  0  0  0  0  0  0  0  0  0
   -1.3416   -0.0444   -0.1547 H   0  0  0  0  0  0  0  0  0  0  0  0
   -2.1467    0.0140    2.0586 H   0  0  0  0  0  0  0  0  0  0  0  0
    2.1617   -0.0157    1.8545 H   0  0  0  0  0  0  0  0  0  0  0  0
    0.6919    0.9732    7.9356 H   0  0  0  0  0  0  0  0  0  0  0  0
    1.4517    1.6650    6.4490 H   0  0  0  0  0  0  0  0  0  0  0  0
   -0.2762    1.9136    6.7512 H   0  0  0  0  0  0  0  0  0  0  0  0
  1  2  1  0  0  0  0
  2  7  2  0  0  0  0
  2  3  1  0  0  0  0
  3  4  2  0  0  0  0
  4  5  1  0  0  0  0
  4 15  1  0  0  0  0
  5 12  1  0  0  0  0
  6  8  1  0  0  0  0
  6  5  2  0  0  0  0
  7  6  1  0  0  0  0
  8 11  1  0  0  0  0
  8  9  1  0  0  0  0
 10  8  1  0  0  0  0
 12 13  2  0  0  0  0
 12 14  1  0  0  0  0
 14 22  1  0  0  0  0
 15 18  1  0  0  0  0
 15 16  1  0  0  0  0
 17 15  1  0  0  0  0
 19  1  1  0  0  0  0
 20  3  1  0  0  0  0
 21  7  1  0  0  0  0
 23 14  1  0  0  0  0
 24 14  1  0  0  0  0
M  END
