317698032.xyz
 OpenBabel08132112123D
CC(c1ccc(cc1)Cc1nnc([nH]1)S)(C)C
 34 35  0  0  0  0  0  0  0  0999 V2000
    5.6726   -4.7810    2.9547 C   0  0  0  0  0  0  0  0  0  0  0  0
    5.9564   -3.9924    4.2507 C   0  0  0  0  0  0  0  0  0  0  0  0
    4.8633   -2.9317    4.4479 C   0  0  0  0  0  0  0  0  0  0  0  0
    5.1345   -1.5598    4.5187 C   0  0  0  0  0  0  0  0  0  0  0  0
    4.1094   -0.6231    4.7007 C   0  0  0  0  0  0  0  0  0  0  0  0
    2.7771   -1.0249    4.8211 C   0  0  0  0  0  0  0  0  0  0  0  0
    2.4956   -2.3984    4.7475 C   0  0  0  0  0  0  0  0  0  0  0  0
    3.5165   -3.3264    4.5674 C   0  0  0  0  0  0  0  0  0  0  0  0
    1.6571   -0.0180    4.9818 C   0  0  0  0  0  0  0  0  0  0  0  0
    0.7253   -0.0109    3.8124 C   0  0  0  0  0  0  0  0  0  0  0  0
   -0.5832   -0.0141    3.8456 N   0  0  0  0  0  0  0  0  0  0  0  0
   -1.0473   -0.0018    2.5476 N   0  0  0  0  0  0  0  0  0  0  0  0
   -0.0000   -0.0000    1.7595 C   0  0  0  0  0  0  0  0  0  0  0  0
    1.1511   -0.0000    2.5024 N   0  0  0  0  0  0  0  0  0  0  0  0
    0.0000    0.0000    0.0000 S   0  0  0  0  0  0  0  0  0  0  0  0
    7.3560   -3.3689    4.1403 C   0  0  0  0  0  0  0  0  0  0  0  0
    5.9491   -4.9589    5.4541 C   0  0  0  0  0  0  0  0  0  0  0  0
    5.6724   -4.1114    2.0804 H   0  0  0  0  0  0  0  0  0  0  0  0
    6.4451   -5.5509    2.7967 H   0  0  0  0  0  0  0  0  0  0  0  0
    4.6970   -5.2882    2.9899 H   0  0  0  0  0  0  0  0  0  0  0  0
    6.1582   -1.1960    4.4343 H   0  0  0  0  0  0  0  0  0  0  0  0
    4.3596    0.4404    4.7567 H   0  0  0  0  0  0  0  0  0  0  0  0
    1.4597   -2.7392    4.8293 H   0  0  0  0  0  0  0  0  0  0  0  0
    3.2561   -4.3858    4.5190 H   0  0  0  0  0  0  0  0  0  0  0  0
    1.0427   -0.2359    5.8677 H   0  0  0  0  0  0  0  0  0  0  0  0
    2.0837    0.9890    5.1265 H   0  0  0  0  0  0  0  0  0  0  0  0
    2.1083   -0.0607    2.1754 H   0  0  0  0  0  0  0  0  0  0  0  0
   -1.3503   -0.0308   -0.0574 H   0  0  0  0  0  0  0  0  0  0  0  0
    8.1063   -4.1621    4.0001 H   0  0  0  0  0  0  0  0  0  0  0  0
    7.6282   -2.8114    5.0497 H   0  0  0  0  0  0  0  0  0  0  0  0
    7.4322   -2.6845    3.2813 H   0  0  0  0  0  0  0  0  0  0  0  0
    6.7265   -5.7304    5.3317 H   0  0  0  0  0  0  0  0  0  0  0  0
    6.1473   -4.4177    6.3923 H   0  0  0  0  0  0  0  0  0  0  0  0
    4.9819   -5.4722    5.5602 H   0  0  0  0  0  0  0  0  0  0  0  0
  1 20  1  0  0  0  0
  1  2  1  0  0  0  0
  2  3  1  0  0  0  0
  2 17  1  0  0  0  0
  3  4  2  0  0  0  0
  3  8  1  0  0  0  0
  4  5  1  0  0  0  0
  5 22  1  0  0  0  0
  5  6  2  0  0  0  0
  6  9  1  0  0  0  0
  7  6  1  0  0  0  0
  7 23  1  0  0  0  0
  8  7  2  0  0  0  0
  9 26  1  0  0  0  0
  9 25  1  0  0  0  0
 10 11  2  0  0  0  0
 10  9  1  0  0  0  0
 12 11  1  0  0  0  0
 13 14  1  0  0  0  0
 13 12  2  0  0  0  0
 14 10  1  0  0  0  0
 15 13  1  0  0  0  0
 16  2  1  0  0  0  0
 16 30  1  0  0  0  0
 17 34  1  0  0  0  0
 17 33  1  0  0  0  0
 18  1  1  0  0  0  0
 19  1  1  0  0  0  0
 21  4  1  0  0  0  0
 24  8  1  0  0  0  0
 27 14  1  0  0  0  0
 28 15  1  0  0  0  0
 29 16  1  0  0  0  0
 31 16  1  0  0  0  0
 32 17  1  0  0  0  0
M  END
