317695266.xyz
 OpenBabel08132112123D
CCOc1c(ccc(c1C(F)F)S)[N+](=O)[O-]
 25 25  0  0  0  0  0  0  0  0999 V2000
    3.6896    1.1600    6.1969 C   0  0  0  0  0  0  0  0  0  0  0  0
    2.6525    1.3745    5.1205 C   0  0  0  0  0  0  0  0  0  0  0  0
    2.1007    0.0844    4.7776 O   0  0  0  0  0  0  0  0  0  0  0  0
    0.9929    0.0857    4.0029 C   0  0  0  0  0  0  0  0  0  0  0  0
   -0.3020    0.1048    4.5573 C   0  0  0  0  0  0  0  0  0  0  0  0
   -1.4272    0.0506    3.7305 C   0  0  0  0  0  0  0  0  0  0  0  0
   -1.2804    0.0223    2.3549 C   0  0  0  0  0  0  0  0  0  0  0  0
   -0.0000    0.0000    1.7669 C   0  0  0  0  0  0  0  0  0  0  0  0
    1.1403    0.0000    2.6008 C   0  0  0  0  0  0  0  0  0  0  0  0
    2.5508   -0.0622    2.0748 C   0  0  0  0  0  0  0  0  0  0  0  0
    2.8950    1.1093    1.4593 F   0  0  0  0  0  0  0  0  0  0  0  0
    2.6937   -1.0498    1.1388 F   0  0  0  0  0  0  0  0  0  0  0  0
    0.0000    0.0000    0.0000 S   0  0  0  0  0  0  0  0  0  0  0  0
   -0.5317    0.1393    6.0050 N   0  0  0  0  0  0  0  0  0  0  0  0
    0.3164    0.6497    6.7210 O   0  0  0  0  0  0  0  0  0  0  0  0
   -1.5822   -0.3374    6.4077 O   0  0  0  0  0  0  0  0  0  0  0  0
    4.4837    0.4808    5.8500 H   0  0  0  0  0  0  0  0  0  0  0  0
    4.1498    2.1209    6.4737 H   0  0  0  0  0  0  0  0  0  0  0  0
    3.2172    0.7234    7.0885 H   0  0  0  0  0  0  0  0  0  0  0  0
    1.8405    2.0237    5.4781 H   0  0  0  0  0  0  0  0  0  0  0  0
    3.0876    1.8232    4.2087 H   0  0  0  0  0  0  0  0  0  0  0  0
   -2.4124    0.0367    4.1957 H   0  0  0  0  0  0  0  0  0  0  0  0
   -2.1649    0.0074    1.7151 H   0  0  0  0  0  0  0  0  0  0  0  0
    3.2699   -0.2597    2.8796 H   0  0  0  0  0  0  0  0  0  0  0  0
    1.3250   -0.1374   -0.1990 H   0  0  0  0  0  0  0  0  0  0  0  0
  1 18  1  0  0  0  0
  1 19  1  0  0  0  0
  2 20  1  0  0  0  0
  2  1  1  0  0  0  0
  3  2  1  0  0  0  0
  4  5  1  0  0  0  0
  4  3  1  0  0  0  0
  5 14  1  0  0  0  0
  6 22  1  0  0  0  0
  6  5  2  0  0  0  0
  7  6  1  0  0  0  0
  8  7  2  0  0  0  0
  8  9  1  0  0  0  0
  9  4  2  0  0  0  0
 10  9  1  0  0  0  0
 10 24  1  0  0  0  0
 11 10  1  0  0  0  0
 12 10  1  0  0  0  0
 13  8  1  0  0  0  0
 14 16  2  0  0  0  0
 14 15  2  0  0  0  0
 17  1  1  0  0  0  0
 21  2  1  0  0  0  0
 23  7  1  0  0  0  0
 25 13  1  0  0  0  0
M  END
