31777223.xyz
 OpenBabel08132112123D
Sc1nc2c3ccccc3CC3(c2c(=O)n1C1CCCCC1)CCCCC3
 55 59  0  0  1  0  0  0  0  0999 V2000
    0.0000    0.0000    0.0000 S   0  0  0  0  0  0  0  0  0  0  0  0
   -0.0000   -0.0000    1.7854 C   0  0  0  0  0  0  0  0  0  0  0  0
    1.1436   -0.0000    2.3926 N   0  0  0  0  0  0  0  0  0  0  0  0
    1.1673    0.0514    3.7612 C   0  0  0  0  0  0  0  0  0  0  0  0
    2.5003   -0.0386    4.3860 C   0  0  0  0  0  0  0  0  0  0  0  0
    3.6225   -0.4520    3.6522 C   0  0  0  0  0  0  0  0  0  0  0  0
    4.8578   -0.6000    4.2819 C   0  0  0  0  0  0  0  0  0  0  0  0
    4.9787   -0.3326    5.6494 C   0  0  0  0  0  0  0  0  0  0  0  0
    3.8653    0.0939    6.3792 C   0  0  0  0  0  0  0  0  0  0  0  0
    2.6238    0.2526    5.7579 C   0  0  0  0  0  0  0  0  0  0  0  0
    1.4206    0.7942    6.4719 C   0  0  0  0  0  0  0  0  0  0  0  0
    0.0847    0.1344    6.0608 C   0  0  0  0  0  0  0  0  0  0  0  0
    0.0171    0.1044    4.5314 C   0  0  2  0  0  0  0  0  0  0  0  0
   -1.2535   -0.0936    3.8543 C   0  0  0  0  0  0  0  0  0  0  0  0
   -2.3306   -0.3312    4.3904 O   0  0  0  0  0  0  0  0  0  0  0  0
   -1.2045   -0.0165    2.4268 N   0  0  0  0  0  0  0  0  0  0  0  0
   -2.4813   -0.0674    1.6809 C   0  0  0  0  0  0  0  0  0  0  0  0
   -3.1234   -1.4729    1.7224 C   0  0  0  0  0  0  0  0  0  0  0  0
   -4.6431   -1.3959    1.4962 C   0  0  0  0  0  0  0  0  0  0  0  0
   -4.9983   -0.2882    0.5001 C   0  0  0  0  0  0  0  0  0  0  0  0
   -4.6074    1.1067    1.0447 C   0  0  0  0  0  0  0  0  0  0  0  0
   -3.4670    1.0368    2.0799 C   0  0  0  0  0  0  0  0  0  0  0  0
   -1.0652    0.9640    6.6926 C   0  0  0  0  0  0  0  0  0  0  0  0
   -1.1114    0.8558    8.2209 C   0  0  0  0  0  0  0  0  0  0  0  0
   -1.2174   -0.6053    8.6691 C   0  0  0  0  0  0  0  0  0  0  0  0
   -0.0765   -1.4493    8.0933 C   0  0  0  0  0  0  0  0  0  0  0  0
   -0.0051   -1.3324    6.5675 C   0  0  0  0  0  0  0  0  0  0  0  0
    1.3507    0.0166   -0.0327 H   0  0  0  0  0  0  0  0  0  0  0  0
    3.5006   -0.6626    2.5895 H   0  0  0  0  0  0  0  0  0  0  0  0
    5.7274   -0.9289    3.7081 H   0  0  0  0  0  0  0  0  0  0  0  0
    5.9432   -0.4536    6.1487 H   0  0  0  0  0  0  0  0  0  0  0  0
    3.9616    0.3150    7.4456 H   0  0  0  0  0  0  0  0  0  0  0  0
    1.3427    1.8729    6.2391 H   0  0  0  0  0  0  0  0  0  0  0  0
    1.5685    0.7265    7.5568 H   0  0  0  0  0  0  0  0  0  0  0  0
   -2.2093    0.1487    0.6389 H   0  0  0  0  0  0  0  0  0  0  0  0
   -2.6486   -2.0942    0.9452 H   0  0  0  0  0  0  0  0  0  0  0  0
   -2.9165   -1.9387    2.6935 H   0  0  0  0  0  0  0  0  0  0  0  0
   -5.1474   -1.1959    2.4562 H   0  0  0  0  0  0  0  0  0  0  0  0
   -5.0177   -2.3710    1.1471 H   0  0  0  0  0  0  0  0  0  0  0  0
   -4.4665   -0.4843   -0.4479 H   0  0  0  0  0  0  0  0  0  0  0  0
   -6.0716   -0.3134    0.2552 H   0  0  0  0  0  0  0  0  0  0  0  0
   -4.3166    1.7603    0.2055 H   0  0  0  0  0  0  0  0  0  0  0  0
   -5.4797    1.5848    1.5180 H   0  0  0  0  0  0  0  0  0  0  0  0
   -3.8591    0.8231    3.0808 H   0  0  0  0  0  0  0  0  0  0  0  0
   -2.9375    2.0005    2.1388 H   0  0  0  0  0  0  0  0  0  0  0  0
   -0.9583    2.0174    6.3825 H   0  0  0  0  0  0  0  0  0  0  0  0
   -2.0183    0.6062    6.2874 H   0  0  0  0  0  0  0  0  0  0  0  0
   -1.9742    1.4307    8.5962 H   0  0  0  0  0  0  0  0  0  0  0  0
   -0.2191    1.3179    8.6784 H   0  0  0  0  0  0  0  0  0  0  0  0
   -2.1805   -1.0176    8.3177 H   0  0  0  0  0  0  0  0  0  0  0  0
   -1.2287   -0.6727    9.7699 H   0  0  0  0  0  0  0  0  0  0  0  0
   -0.2045   -2.5085    8.3723 H   0  0  0  0  0  0  0  0  0  0  0  0
    0.8810   -1.1322    8.5429 H   0  0  0  0  0  0  0  0  0  0  0  0
   -0.9131   -1.7763    6.1293 H   0  0  0  0  0  0  0  0  0  0  0  0
    0.8532   -1.9033    6.1773 H   0  0  0  0  0  0  0  0  0  0  0  0
  1  2  1  0  0  0  0
  2  3  2  0  0  0  0
  2 16  1  0  0  0  0
  3  4  2  0  0  0  0
  4  5  1  0  0  0  0
  5 10  2  0  0  0  0
  6  7  2  0  0  0  0
  6  5  1  0  0  0  0
  7  8  1  0  0  0  0
  8 31  1  0  0  0  0
  8  9  2  0  0  0  0
  9 32  1  0  0  0  0
 10  9  1  0  0  0  0
 10 11  1  0  0  0  0
 11 34  1  0  0  0  0
 12 11  1  0  0  0  0
 12 27  1  0  0  0  0
 12 23  1  0  0  0  0
 13  4  1  1  0  0  0
 13 12  1  0  0  0  0
 14 15  2  0  0  0  0
 14 13  1  0  0  0  0
 16 14  1  0  0  0  0
 17 18  1  0  0  0  0
 17 22  1  0  0  0  0
 17 16  1  0  0  0  0
 18 37  1  0  0  0  0
 19 18  1  0  0  0  0
 19 38  1  0  0  0  0
 20 21  1  0  0  0  0
 20 19  1  0  0  0  0
 21 43  1  0  0  0  0
 21 22  1  0  0  0  0
 22 45  1  0  0  0  0
 22 44  1  0  0  0  0
 23 24  1  0  0  0  0
 24 48  1  0  0  0  0
 24 25  1  0  0  0  0
 24 49  1  0  0  0  0
 25 51  1  0  0  0  0
 26 52  1  0  0  0  0
 26 53  1  0  0  0  0
 26 25  1  0  0  0  0
 27 26  1  0  0  0  0
 28  1  1  0  0  0  0
 29  6  1  0  0  0  0
 30  7  1  0  0  0  0
 33 11  1  0  0  0  0
 35 17  1  0  0  0  0
 36 18  1  0  0  0  0
 39 19  1  0  0  0  0
 40 20  1  0  0  0  0
 41 20  1  0  0  0  0
 42 21  1  0  0  0  0
 46 23  1  0  0  0  0
 47 23  1  0  0  0  0
 50 25  1  0  0  0  0
 54 27  1  0  0  0  0
 55 27  1  0  0  0  0
M  RAD  1  13   2
M  END
