317703027.xyz
 OpenBabel08132112123D
N#CCc1c(S)ccc(c1OC(F)(F)F)C(F)(F)F
 24 24  0  0  0  0  0  0  0  0999 V2000
    2.9527   -2.4205    0.7740 N   0  0  0  0  0  0  0  0  0  0  0  0
    2.7904   -1.3884    1.2747 C   0  0  0  0  0  0  0  0  0  0  0  0
    2.5415   -0.0759    1.8787 C   0  0  0  0  0  0  0  0  0  0  0  0
    1.1846    0.0000    2.5511 C   0  0  0  0  0  0  0  0  0  0  0  0
    0.0000    0.0000    1.7844 C   0  0  0  0  0  0  0  0  0  0  0  0
    0.0000    0.0000    0.0000 S   0  0  0  0  0  0  0  0  0  0  0  0
   -1.2439    0.0779    2.4241 C   0  0  0  0  0  0  0  0  0  0  0  0
   -1.3207    0.1183    3.8102 C   0  0  0  0  0  0  0  0  0  0  0  0
   -0.1646    0.0950    4.5981 C   0  0  0  0  0  0  0  0  0  0  0  0
    1.0807    0.0632    3.9511 C   0  0  0  0  0  0  0  0  0  0  0  0
    2.2593    0.0238    4.6887 O   0  0  0  0  0  0  0  0  0  0  0  0
    2.8174    1.1859    5.1197 C   0  0  0  0  0  0  0  0  0  0  0  0
    3.2998    1.9097    4.0902 F   0  0  0  0  0  0  0  0  0  0  0  0
    3.8191    0.8787    5.9227 F   0  0  0  0  0  0  0  0  0  0  0  0
    1.9503    1.9658    5.7650 F   0  0  0  0  0  0  0  0  0  0  0  0
   -0.3553    0.0985    6.1032 C   0  0  0  0  0  0  0  0  0  0  0  0
   -0.5714    1.3401    6.5683 F   0  0  0  0  0  0  0  0  0  0  0  0
   -1.4401   -0.6297    6.4291 F   0  0  0  0  0  0  0  0  0  0  0  0
    0.6816   -0.4150    6.7723 F   0  0  0  0  0  0  0  0  0  0  0  0
    2.5880    0.6770    1.0738 H   0  0  0  0  0  0  0  0  0  0  0  0
    3.3496    0.1419    2.5843 H   0  0  0  0  0  0  0  0  0  0  0  0
    0.8973   -0.9985   -0.1777 H   0  0  0  0  0  0  0  0  0  0  0  0
   -2.1550    0.0715    1.8241 H   0  0  0  0  0  0  0  0  0  0  0  0
   -2.2953    0.1367    4.2993 H   0  0  0  0  0  0  0  0  0  0  0  0
  1  2  3  0  0  0  0
  2  3  1  0  0  0  0
  3  4  1  0  0  0  0
  3 21  1  0  0  0  0
  4 10  2  0  0  0  0
  5  7  2  0  0  0  0
  5  4  1  0  0  0  0
  6  5  1  0  0  0  0
  7  8  1  0  0  0  0
  8 24  1  0  0  0  0
  8  9  2  0  0  0  0
  9 16  1  0  0  0  0
 10  9  1  0  0  0  0
 10 11  1  0  0  0  0
 11 12  1  0  0  0  0
 12 15  1  0  0  0  0
 12 14  1  0  0  0  0
 13 12  1  0  0  0  0
 16 18  1  0  0  0  0
 16 17  1  0  0  0  0
 16 19  1  0  0  0  0
 20  3  1  0  0  0  0
 22  6  1  0  0  0  0
 23  7  1  0  0  0  0
M  END
