317704199.xyz
 OpenBabel08132112123D
FC(Oc1cc(S)cc(c1I)C(=O)N)F
 21 21  0  0  0  0  0  0  0  0999 V2000
    4.1994    0.1586    3.0370 F   0  0  0  0  0  0  0  0  0  0  0  0
    3.5795   -0.6136    3.9641 C   0  0  0  0  0  0  0  0  0  0  0  0
    2.4923    0.0376    4.4871 O   0  0  0  0  0  0  0  0  0  0  0  0
    1.2957    0.0000    3.8172 C   0  0  0  0  0  0  0  0  0  0  0  0
    1.2427    0.0000    2.4233 C   0  0  0  0  0  0  0  0  0  0  0  0
   -0.0000   -0.0000    1.7728 C   0  0  0  0  0  0  0  0  0  0  0  0
    0.0000    0.0000    0.0000 S   0  0  0  0  0  0  0  0  0  0  0  0
   -1.1678    0.0137    2.5363 C   0  0  0  0  0  0  0  0  0  0  0  0
   -1.1291    0.0042    3.9391 C   0  0  0  0  0  0  0  0  0  0  0  0
    0.1164    0.0049    4.5895 C   0  0  0  0  0  0  0  0  0  0  0  0
    0.3722    0.1235    6.7032 I   0  0  0  0  0  0  0  0  0  0  0  0
   -2.5122    0.0252    4.5746 C   0  0  0  0  0  0  0  0  0  0  0  0
   -3.4121    0.6570    4.0495 O   0  0  0  0  0  0  0  0  0  0  0  0
   -2.7060   -0.7573    5.6665 N   0  0  0  0  0  0  0  0  0  0  0  0
    4.4376   -0.8114    4.9664 F   0  0  0  0  0  0  0  0  0  0  0  0
    3.3058   -1.5746    3.4919 H   0  0  0  0  0  0  0  0  0  0  0  0
    2.1682    0.0478    1.8496 H   0  0  0  0  0  0  0  0  0  0  0  0
   -1.3395    0.0907   -0.1514 H   0  0  0  0  0  0  0  0  0  0  0  0
   -2.1518    0.0507    2.0679 H   0  0  0  0  0  0  0  0  0  0  0  0
   -1.9414   -1.2022    6.1573 H   0  0  0  0  0  0  0  0  0  0  0  0
   -3.6099   -0.6994    6.1219 H   0  0  0  0  0  0  0  0  0  0  0  0
  1  2  1  0  0  0  0
  2  3  1  0  0  0  0
  2 15  1  0  0  0  0
  4  3  1  0  0  0  0
  4 10  2  0  0  0  0
  5  4  1  0  0  0  0
  6  5  2  0  0  0  0
  6  8  1  0  0  0  0
  7  6  1  0  0  0  0
  8  9  2  0  0  0  0
  9 12  1  0  0  0  0
  9 10  1  0  0  0  0
 10 11  1  0  0  0  0
 12 14  1  0  0  0  0
 13 12  2  0  0  0  0
 14 21  1  0  0  0  0
 14 20  1  0  0  0  0
 16  2  1  0  0  0  0
 17  5  1  0  0  0  0
 18  7  1  0  0  0  0
 19  8  1  0  0  0  0
M  END
