317717619.xyz
 OpenBabel08132112123D
COc1cc(S)c(cc1OC(F)(F)F)[N+](=O)[O-]
 23 23  0  0  0  0  0  0  0  0999 V2000
   -3.8619   -0.0073    3.5349 C   0  0  0  0  0  0  0  0  0  0  0  0
   -2.6833    0.0105    4.3198 O   0  0  0  0  0  0  0  0  0  0  0  0
   -1.4904    0.0061    3.7181 C   0  0  0  0  0  0  0  0  0  0  0  0
   -1.2882    0.0046    2.3386 C   0  0  0  0  0  0  0  0  0  0  0  0
   -0.0000    0.0000    1.7611 C   0  0  0  0  0  0  0  0  0  0  0  0
    0.0000    0.0000    0.0000 S   0  0  0  0  0  0  0  0  0  0  0  0
    1.1105   -0.0000    2.6400 C   0  0  0  0  0  0  0  0  0  0  0  0
    0.9127    0.0042    4.0338 C   0  0  0  0  0  0  0  0  0  0  0  0
   -0.3538    0.0047    4.5667 C   0  0  0  0  0  0  0  0  0  0  0  0
   -0.5515    0.0554    5.9375 O   0  0  0  0  0  0  0  0  0  0  0  0
   -0.5241   -1.1171    6.6176 C   0  0  0  0  0  0  0  0  0  0  0  0
   -1.3627   -2.0235    6.1008 F   0  0  0  0  0  0  0  0  0  0  0  0
   -0.8721   -0.8685    7.8696 F   0  0  0  0  0  0  0  0  0  0  0  0
    0.7003   -1.6670    6.6123 F   0  0  0  0  0  0  0  0  0  0  0  0
    2.5109    0.0028    2.2128 N   0  0  0  0  0  0  0  0  0  0  0  0
    3.3684    0.0322    3.0792 O   0  0  0  0  0  0  0  0  0  0  0  0
    2.7801   -0.0242    1.0110 O   0  0  0  0  0  0  0  0  0  0  0  0
   -4.7007   -0.0086    4.2414 H   0  0  0  0  0  0  0  0  0  0  0  0
   -3.9285    0.8861    2.8911 H   0  0  0  0  0  0  0  0  0  0  0  0
   -3.9113   -0.9136    2.9079 H   0  0  0  0  0  0  0  0  0  0  0  0
   -2.1444    0.0056    1.6653 H   0  0  0  0  0  0  0  0  0  0  0  0
    1.3501   -0.0185   -0.1154 H   0  0  0  0  0  0  0  0  0  0  0  0
    1.7814    0.0072    4.6877 H   0  0  0  0  0  0  0  0  0  0  0  0
  1 18  1  0  0  0  0
  1  2  1  0  0  0  0
  3  2  1  0  0  0  0
  3  9  2  0  0  0  0
  4  3  1  0  0  0  0
  5  4  2  0  0  0  0
  5  7  1  0  0  0  0
  6  5  1  0  0  0  0
  7  8  2  0  0  0  0
  8  9  1  0  0  0  0
  8 23  1  0  0  0  0
  9 10  1  0  0  0  0
 10 11  1  0  0  0  0
 11 13  1  0  0  0  0
 12 11  1  0  0  0  0
 14 11  1  0  0  0  0
 15  7  1  0  0  0  0
 15 16  2  0  0  0  0
 17 15  2  0  0  0  0
 19  1  1  0  0  0  0
 20  1  1  0  0  0  0
 21  4  1  0  0  0  0
 22  6  1  0  0  0  0
M  END
