317701497.xyz
 OpenBabel08132112123D
CC(=O)c1c(S)ccc(c1OC(F)(F)F)C(F)(F)F
 25 25  0  0  0  0  0  0  0  0999 V2000
    3.0385    1.3495    1.3760 C   0  0  0  0  0  0  0  0  0  0  0  0
    2.5435    0.0026    1.8405 C   0  0  0  0  0  0  0  0  0  0  0  0
    3.1286   -1.0355    1.6436 O   0  0  0  0  0  0  0  0  0  0  0  0
    1.1898   -0.0000    2.5398 C   0  0  0  0  0  0  0  0  0  0  0  0
   -0.0000    0.0000    1.7841 C   0  0  0  0  0  0  0  0  0  0  0  0
    0.0000    0.0000    0.0000 S   0  0  0  0  0  0  0  0  0  0  0  0
   -1.2413    0.0212    2.4326 C   0  0  0  0  0  0  0  0  0  0  0  0
   -1.3090    0.0220    3.8230 C   0  0  0  0  0  0  0  0  0  0  0  0
   -0.1424   -0.0182    4.5890 C   0  0  0  0  0  0  0  0  0  0  0  0
    1.0959   -0.0320    3.9331 C   0  0  0  0  0  0  0  0  0  0  0  0
    2.2405   -0.1472    4.7113 O   0  0  0  0  0  0  0  0  0  0  0  0
    3.0321    0.9212    4.9912 C   0  0  0  0  0  0  0  0  0  0  0  0
    3.4245    0.8519    6.2524 F   0  0  0  0  0  0  0  0  0  0  0  0
    4.1291    0.9148    4.2184 F   0  0  0  0  0  0  0  0  0  0  0  0
    2.4047    2.0859    4.7857 F   0  0  0  0  0  0  0  0  0  0  0  0
   -0.2133   -0.0845    6.0972 C   0  0  0  0  0  0  0  0  0  0  0  0
   -1.4828    0.0045    6.5280 F   0  0  0  0  0  0  0  0  0  0  0  0
    0.4716    0.9220    6.6708 F   0  0  0  0  0  0  0  0  0  0  0  0
    0.2907   -1.2327    6.5688 F   0  0  0  0  0  0  0  0  0  0  0  0
    4.0519    1.2521    0.9655 H   0  0  0  0  0  0  0  0  0  0  0  0
    3.0233    2.0773    2.1996 H   0  0  0  0  0  0  0  0  0  0  0  0
    2.3516    1.7233    0.5987 H   0  0  0  0  0  0  0  0  0  0  0  0
    1.0916   -0.7829   -0.1582 H   0  0  0  0  0  0  0  0  0  0  0  0
   -2.1580    0.0087    1.8405 H   0  0  0  0  0  0  0  0  0  0  0  0
   -2.2765    0.0299    4.3247 H   0  0  0  0  0  0  0  0  0  0  0  0
  1  2  1  0  0  0  0
  1 21  1  0  0  0  0
  2  4  1  0  0  0  0
  3  2  2  0  0  0  0
  4 10  2  0  0  0  0
  5  7  2  0  0  0  0
  5  4  1  0  0  0  0
  6  5  1  0  0  0  0
  7  8  1  0  0  0  0
  8 25  1  0  0  0  0
  8  9  2  0  0  0  0
  9 16  1  0  0  0  0
 10  9  1  0  0  0  0
 10 11  1  0  0  0  0
 11 12  1  0  0  0  0
 12 13  1  0  0  0  0
 14 12  1  0  0  0  0
 15 12  1  0  0  0  0
 16 17  1  0  0  0  0
 16 19  1  0  0  0  0
 16 18  1  0  0  0  0
 20  1  1  0  0  0  0
 22  1  1  0  0  0  0
 23  6  1  0  0  0  0
 24  7  1  0  0  0  0
M  END
