317700478.xyz
 OpenBabel08132112123D
BrCC(=O)c1cc(S)c(c(c1)C(F)(F)F)OC(F)(F)F
 25 25  0  0  0  0  0  0  0  0999 V2000
    4.2128   -1.7889    2.9701 Br  0  0  0  0  0  0  0  0  0  0  0  0
    3.9319   -0.0193    3.7808 C   0  0  0  0  0  0  0  0  0  0  0  0
    2.6263    0.0129    4.5618 C   0  0  0  0  0  0  0  0  0  0  0  0
    2.6560    0.0696    5.7725 O   0  0  0  0  0  0  0  0  0  0  0  0
    1.3237   -0.0054    3.8184 C   0  0  0  0  0  0  0  0  0  0  0  0
    1.2420   -0.0000    2.4241 C   0  0  0  0  0  0  0  0  0  0  0  0
   -0.0000    0.0000    1.7702 C   0  0  0  0  0  0  0  0  0  0  0  0
    0.0000    0.0000    0.0000 S   0  0  0  0  0  0  0  0  0  0  0  0
   -1.1665   -0.0146    2.5520 C   0  0  0  0  0  0  0  0  0  0  0  0
   -1.0945    0.0134    3.9545 C   0  0  0  0  0  0  0  0  0  0  0  0
    0.1462    0.0132    4.5810 C   0  0  0  0  0  0  0  0  0  0  0  0
   -2.3608    0.0736    4.7831 C   0  0  0  0  0  0  0  0  0  0  0  0
   -2.0849    0.1079    6.0943 F   0  0  0  0  0  0  0  0  0  0  0  0
   -3.1409   -1.0009    4.5673 F   0  0  0  0  0  0  0  0  0  0  0  0
   -3.0862    1.1628    4.4942 F   0  0  0  0  0  0  0  0  0  0  0  0
   -2.4067    0.0307    1.9365 O   0  0  0  0  0  0  0  0  0  0  0  0
   -3.0640   -1.1090    1.5553 C   0  0  0  0  0  0  0  0  0  0  0  0
   -3.1294   -1.1660    0.2177 F   0  0  0  0  0  0  0  0  0  0  0  0
   -2.4585   -2.2101    1.9899 F   0  0  0  0  0  0  0  0  0  0  0  0
   -4.3057   -1.0749    2.0144 F   0  0  0  0  0  0  0  0  0  0  0  0
    3.9588    0.7118    2.9634 H   0  0  0  0  0  0  0  0  0  0  0  0
    4.7589    0.1474    4.4777 H   0  0  0  0  0  0  0  0  0  0  0  0
    2.1447   -0.0064    1.8127 H   0  0  0  0  0  0  0  0  0  0  0  0
   -1.3035    0.3122   -0.1556 H   0  0  0  0  0  0  0  0  0  0  0  0
    0.2240    0.0345    5.6670 H   0  0  0  0  0  0  0  0  0  0  0  0
  1  2  1  0  0  0  0
  2 22  1  0  0  0  0
  2  3  1  0  0  0  0
  3  4  2  0  0  0  0
  5  3  1  0  0  0  0
  5 11  2  0  0  0  0
  6  5  1  0  0  0  0
  7  6  2  0  0  0  0
  7  9  1  0  0  0  0
  8  7  1  0  0  0  0
  9 10  2  0  0  0  0
 10 11  1  0  0  0  0
 10 12  1  0  0  0  0
 11 25  1  0  0  0  0
 12 13  1  0  0  0  0
 14 12  1  0  0  0  0
 15 12  1  0  0  0  0
 16  9  1  0  0  0  0
 17 16  1  0  0  0  0
 17 19  1  0  0  0  0
 17 20  1  0  0  0  0
 18 17  1  0  0  0  0
 21  2  1  0  0  0  0
 23  6  1  0  0  0  0
 24  8  1  0  0  0  0
M  END
