35691532.xyz
 OpenBabel08132112123D
CSc1ccccc1NC(=O)Cn1c(S)nnc1c1ccc(cc1)C
 43 45  0  0  0  0  0  0  0  0999 V2000
    1.5780   -1.0128   -3.2387 C   0  0  0  0  0  0  0  0  0  0  0  0
    3.2976   -0.5559   -2.8022 S   0  0  0  0  0  0  0  0  0  0  0  0
    3.8514   -2.1008   -2.0804 C   0  0  0  0  0  0  0  0  0  0  0  0
    4.3741   -3.1051   -2.9014 C   0  0  0  0  0  0  0  0  0  0  0  0
    4.7997   -4.3188   -2.3600 C   0  0  0  0  0  0  0  0  0  0  0  0
    4.7061   -4.5228   -0.9812 C   0  0  0  0  0  0  0  0  0  0  0  0
    4.2004   -3.5318   -0.1397 C   0  0  0  0  0  0  0  0  0  0  0  0
    3.7730   -2.3074   -0.6802 C   0  0  0  0  0  0  0  0  0  0  0  0
    3.2700   -1.2594    0.1045 N   0  0  0  0  0  0  0  0  0  0  0  0
    3.0394   -1.2259    1.4474 C   0  0  0  0  0  0  0  0  0  0  0  0
    3.2234   -2.1507    2.2193 O   0  0  0  0  0  0  0  0  0  0  0  0
    2.4998    0.1229    1.9514 C   0  0  0  0  0  0  0  0  0  0  0  0
    1.1630    0.0000    2.4956 N   0  0  0  0  0  0  0  0  0  0  0  0
    0.0000   -0.0000    1.7620 C   0  0  0  0  0  0  0  0  0  0  0  0
    0.0000    0.0000    0.0000 S   0  0  0  0  0  0  0  0  0  0  0  0
   -1.0478    0.0262    2.5454 N   0  0  0  0  0  0  0  0  0  0  0  0
   -0.5870    0.0451    3.8362 N   0  0  0  0  0  0  0  0  0  0  0  0
    0.7284    0.0190    3.8155 C   0  0  0  0  0  0  0  0  0  0  0  0
    1.5877    0.0585    5.0043 C   0  0  0  0  0  0  0  0  0  0  0  0
    1.1676    0.8258    6.1072 C   0  0  0  0  0  0  0  0  0  0  0  0
    1.9374    0.8765    7.2641 C   0  0  0  0  0  0  0  0  0  0  0  0
    3.1485    0.1695    7.3652 C   0  0  0  0  0  0  0  0  0  0  0  0
    3.5499   -0.6046    6.2689 C   0  0  0  0  0  0  0  0  0  0  0  0
    2.7834   -0.6718    5.1030 C   0  0  0  0  0  0  0  0  0  0  0  0
    3.9783    0.2471    8.6207 C   0  0  0  0  0  0  0  0  0  0  0  0
    1.1077   -0.1082   -3.6505 H   0  0  0  0  0  0  0  0  0  0  0  0
    1.0238   -1.3414   -2.3493 H   0  0  0  0  0  0  0  0  0  0  0  0
    1.5769   -1.8050   -4.0000 H   0  0  0  0  0  0  0  0  0  0  0  0
    4.4410   -2.9198   -3.9754 H   0  0  0  0  0  0  0  0  0  0  0  0
    5.2030   -5.0974   -3.0107 H   0  0  0  0  0  0  0  0  0  0  0  0
    5.0341   -5.4694   -0.5453 H   0  0  0  0  0  0  0  0  0  0  0  0
    4.1241   -3.6870    0.9335 H   0  0  0  0  0  0  0  0  0  0  0  0
    3.0430   -0.4307   -0.4473 H   0  0  0  0  0  0  0  0  0  0  0  0
    3.1662    0.4750    2.7498 H   0  0  0  0  0  0  0  0  0  0  0  0
    2.4863    0.8834    1.1551 H   0  0  0  0  0  0  0  0  0  0  0  0
   -1.3199    0.2857   -0.0637 H   0  0  0  0  0  0  0  0  0  0  0  0
    0.2268    1.3739    6.0366 H   0  0  0  0  0  0  0  0  0  0  0  0
    1.5955    1.4794    8.1101 H   0  0  0  0  0  0  0  0  0  0  0  0
    4.4749   -1.1841    6.3312 H   0  0  0  0  0  0  0  0  0  0  0  0
    3.0936   -1.3259    4.2861 H   0  0  0  0  0  0  0  0  0  0  0  0
    4.8432   -0.4304    8.5769 H   0  0  0  0  0  0  0  0  0  0  0  0
    3.3827   -0.0175    9.5097 H   0  0  0  0  0  0  0  0  0  0  0  0
    4.3591    1.2698    8.7827 H   0  0  0  0  0  0  0  0  0  0  0  0
  1  2  1  0  0  0  0
  1 27  1  0  0  0  0
  2  3  1  0  0  0  0
  3  8  2  0  0  0  0
  4  5  2  0  0  0  0
  4  3  1  0  0  0  0
  5  6  1  0  0  0  0
  6 31  1  0  0  0  0
  6  7  2  0  0  0  0
  7 32  1  0  0  0  0
  8  7  1  0  0  0  0
  8  9  1  0  0  0  0
  9 10  1  0  0  0  0
 10 12  1  0  0  0  0
 10 11  2  0  0  0  0
 12 13  1  0  0  0  0
 12 34  1  0  0  0  0
 13 18  1  0  0  0  0
 14 13  1  0  0  0  0
 14 16  2  0  0  0  0
 15 14  1  0  0  0  0
 16 17  1  0  0  0  0
 18 17  2  0  0  0  0
 18 19  1  0  0  0  0
 19 24  2  0  0  0  0
 19 20  1  0  0  0  0
 20 21  2  0  0  0  0
 21 22  1  0  0  0  0
 21 38  1  0  0  0  0
 22 25  1  0  0  0  0
 23 39  1  0  0  0  0
 23 22  2  0  0  0  0
 24 23  1  0  0  0  0
 25 43  1  0  0  0  0
 25 42  1  0  0  0  0
 26  1  1  0  0  0  0
 28  1  1  0  0  0  0
 29  4  1  0  0  0  0
 30  5  1  0  0  0  0
 33  9  1  0  0  0  0
 35 12  1  0  0  0  0
 36 15  1  0  0  0  0
 37 20  1  0  0  0  0
 40 24  1  0  0  0  0
 41 25  1  0  0  0  0
M  END
