35740689.xyz
 OpenBabel08132112123D
O=C(N(C1CC1)C1CCCCC1)c1ccc2c(c1)nc(n(c2=O)C)S
 48 51  0  0  1  0  0  0  0  0999 V2000
   -4.4891    0.8701    6.2081 O   0  0  0  0  0  0  0  0  0  0  0  0
   -3.6532    0.0634    6.5922 C   0  0  0  0  0  0  0  0  0  0  0  0
   -3.8825   -0.7627    7.6679 N   0  0  0  0  0  0  0  0  0  0  0  0
   -3.0429   -1.8750    8.0211 C   0  0  0  0  0  0  0  0  0  0  0  0
   -2.5816   -2.8530    6.9757 C   0  0  0  0  0  0  0  0  0  0  0  0
   -3.5851   -3.2876    8.0035 C   0  0  0  0  0  0  0  0  0  0  0  0
   -5.0945   -0.4777    8.4578 C   0  0  0  0  0  0  0  0  0  0  0  0
   -6.3730   -1.0986    7.8407 C   0  0  0  0  0  0  0  0  0  0  0  0
   -7.4714   -1.3309    8.8933 C   0  0  0  0  0  0  0  0  0  0  0  0
   -7.4398   -0.2351    9.9618 C   0  0  0  0  0  0  0  0  0  0  0  0
   -6.1121   -0.2648   10.7526 C   0  0  0  0  0  0  0  0  0  0  0  0
   -4.9476   -0.8583    9.9330 C   0  0  0  0  0  0  0  0  0  0  0  0
   -2.3194   -0.0138    5.8932 C   0  0  0  0  0  0  0  0  0  0  0  0
   -1.0977   -0.0009    6.6020 C   0  0  0  0  0  0  0  0  0  0  0  0
    0.1056    0.0140    5.9153 C   0  0  0  0  0  0  0  0  0  0  0  0
    0.1143    0.0025    4.5098 C   0  0  1  0  0  0  0  0  0  0  0  0
   -1.1025    0.0021    3.7889 C   0  0  0  0  0  0  0  0  0  0  0  0
   -2.3170    0.0107    4.5030 C   0  0  0  0  0  0  0  0  0  0  0  0
   -1.1255   -0.0004    2.4101 N   0  0  0  0  0  0  0  0  0  0  0  0
    0.0000   -0.0000    1.7808 C   0  0  0  0  0  0  0  0  0  0  0  0
    1.2476   -0.0000    2.3723 N   0  0  0  0  0  0  0  0  0  0  0  0
    1.3880   -0.0001    3.7845 C   0  0  0  0  0  0  0  0  0  0  0  0
    2.4897   -0.0027    4.3033 O   0  0  0  0  0  0  0  0  0  0  0  0
    2.4680    0.0013    1.5704 C   0  0  0  0  0  0  0  0  0  0  0  0
    0.0000    0.0000    0.0000 S   0  0  0  0  0  0  0  0  0  0  0  0
   -2.3304   -1.6743    8.8300 H   0  0  0  0  0  0  0  0  0  0  0  0
   -1.5507   -3.2094    7.0392 H   0  0  0  0  0  0  0  0  0  0  0  0
   -2.9391   -2.6984    5.9559 H   0  0  0  0  0  0  0  0  0  0  0  0
   -3.2681   -3.9514    8.8121 H   0  0  0  0  0  0  0  0  0  0  0  0
   -4.6132   -3.4388    7.6721 H   0  0  0  0  0  0  0  0  0  0  0  0
   -5.2100    0.6148    8.4072 H   0  0  0  0  0  0  0  0  0  0  0  0
   -6.1212   -2.0471    7.3435 H   0  0  0  0  0  0  0  0  0  0  0  0
   -6.7257   -0.4205    7.0496 H   0  0  0  0  0  0  0  0  0  0  0  0
   -8.4583   -1.3736    8.4059 H   0  0  0  0  0  0  0  0  0  0  0  0
   -7.3284   -2.3112    9.3811 H   0  0  0  0  0  0  0  0  0  0  0  0
   -8.2944   -0.3324   10.6499 H   0  0  0  0  0  0  0  0  0  0  0  0
   -7.5575    0.7426    9.4636 H   0  0  0  0  0  0  0  0  0  0  0  0
   -5.8551    0.7572   11.0757 H   0  0  0  0  0  0  0  0  0  0  0  0
   -6.2341   -0.8567   11.6742 H   0  0  0  0  0  0  0  0  0  0  0  0
   -3.9857   -0.4952   10.3267 H   0  0  0  0  0  0  0  0  0  0  0  0
   -4.9344   -1.9543   10.0350 H   0  0  0  0  0  0  0  0  0  0  0  0
   -1.1032    0.0148    7.6923 H   0  0  0  0  0  0  0  0  0  0  0  0
    1.0637    0.0345    6.4373 H   0  0  0  0  0  0  0  0  0  0  0  0
   -3.2546    0.0406    3.9477 H   0  0  0  0  0  0  0  0  0  0  0  0
    2.5118    0.8987    0.9351 H   0  0  0  0  0  0  0  0  0  0  0  0
    2.5136   -0.8957    0.9343 H   0  0  0  0  0  0  0  0  0  0  0  0
    3.3122    0.0017    2.2683 H   0  0  0  0  0  0  0  0  0  0  0  0
   -1.3500    0.0070   -0.0449 H   0  0  0  0  0  0  0  0  0  0  0  0
  1  2  2  0  0  0  0
  2  3  1  0  0  0  0
  3  4  1  0  0  0  0
  3  7  1  0  0  0  0
  4 26  1  0  0  0  0
  5 27  1  0  0  0  0
  5  6  1  0  0  0  0
  5  4  1  0  0  0  0
  6  4  1  0  0  0  0
  6 29  1  0  0  0  0
  7 12  1  0  0  0  0
  8  7  1  0  0  0  0
  8  9  1  0  0  0  0
  9 35  1  0  0  0  0
  9 10  1  0  0  0  0
 10 36  1  0  0  0  0
 10 11  1  0  0  0  0
 11 38  1  0  0  0  0
 11 39  1  0  0  0  0
 12 41  1  0  0  0  0
 12 40  1  0  0  0  0
 12 11  1  0  0  0  0
 13  2  1  0  0  0  0
 13 14  1  0  0  0  0
 14 42  1  0  0  0  0
 15 43  1  0  0  0  0
 15 14  2  0  0  0  0
 16 22  1  6  0  0  0
 16 15  1  0  0  0  0
 17 18  1  0  0  0  0
 17 16  1  0  0  0  0
 18 13  2  0  0  0  0
 19 17  2  0  0  0  0
 20 21  1  0  0  0  0
 20 19  2  0  0  0  0
 21 22  1  0  0  0  0
 22 23  2  0  0  0  0
 24 47  1  0  0  0  0
 24 21  1  0  0  0  0
 25 20  1  0  0  0  0
 28  5  1  0  0  0  0
 30  6  1  0  0  0  0
 31  7  1  0  0  0  0
 32  8  1  0  0  0  0
 33  8  1  0  0  0  0
 34  9  1  0  0  0  0
 37 10  1  0  0  0  0
 44 18  1  0  0  0  0
 45 24  1  0  0  0  0
 46 24  1  0  0  0  0
 48 25  1  0  0  0  0
M  RAD  1  16   2
M  END
