35740759.xyz
 OpenBabel08132112123D
O=C(c1ccc2c(c1)nc(n(c2=O)C)S)NC(c1ccccc1)(C)C
 44 46  0  0  1  0  0  0  0  0999 V2000
   -3.5908   -0.4291    7.8654 O   0  0  0  0  0  0  0  0  0  0  0  0
   -3.5897   -0.0263    6.7127 C   0  0  0  0  0  0  0  0  0  0  0  0
   -2.3210   -0.0043    5.8946 C   0  0  0  0  0  0  0  0  0  0  0  0
   -1.0997   -0.0324    6.6031 C   0  0  0  0  0  0  0  0  0  0  0  0
    0.1037   -0.0245    5.9180 C   0  0  0  0  0  0  0  0  0  0  0  0
    0.1143   -0.0064    4.5117 C   0  0  2  0  0  0  0  0  0  0  0  0
   -1.1000    0.0001    3.7891 C   0  0  0  0  0  0  0  0  0  0  0  0
   -2.3160   -0.0002    4.5027 C   0  0  0  0  0  0  0  0  0  0  0  0
   -1.1262    0.0003    2.4105 N   0  0  0  0  0  0  0  0  0  0  0  0
    0.0000   -0.0000    1.7803 C   0  0  0  0  0  0  0  0  0  0  0  0
    1.2465   -0.0000    2.3718 N   0  0  0  0  0  0  0  0  0  0  0  0
    1.3881   -0.0028    3.7851 C   0  0  0  0  0  0  0  0  0  0  0  0
    2.4895   -0.0027    4.3022 O   0  0  0  0  0  0  0  0  0  0  0  0
    2.4672    0.0006    1.5698 C   0  0  0  0  0  0  0  0  0  0  0  0
    0.0000    0.0000    0.0000 S   0  0  0  0  0  0  0  0  0  0  0  0
   -4.7097    0.4240    6.0774 N   0  0  0  0  0  0  0  0  0  0  0  0
   -6.0448    0.4538    6.6950 C   0  0  0  0  0  0  0  0  0  0  0  0
   -6.4662   -0.9733    7.0796 C   0  0  0  0  0  0  0  0  0  0  0  0
   -6.1812   -2.0358    6.2090 C   0  0  0  0  0  0  0  0  0  0  0  0
   -6.6057   -3.3337    6.4923 C   0  0  0  0  0  0  0  0  0  0  0  0
   -7.3303   -3.5964    7.6585 C   0  0  0  0  0  0  0  0  0  0  0  0
   -7.6197   -2.5479    8.5326 C   0  0  0  0  0  0  0  0  0  0  0  0
   -7.1903   -1.2486    8.2456 C   0  0  0  0  0  0  0  0  0  0  0  0
   -6.0413    1.4227    7.8891 C   0  0  0  0  0  0  0  0  0  0  0  0
   -7.0144    0.9722    5.6176 C   0  0  0  0  0  0  0  0  0  0  0  0
   -1.1396   -0.0647    7.6924 H   0  0  0  0  0  0  0  0  0  0  0  0
    1.0614   -0.0366    6.4411 H   0  0  0  0  0  0  0  0  0  0  0  0
   -3.2349   -0.0238    3.9147 H   0  0  0  0  0  0  0  0  0  0  0  0
    2.5117   -0.8962    0.9336 H   0  0  0  0  0  0  0  0  0  0  0  0
    3.3112   -0.0004    2.2679 H   0  0  0  0  0  0  0  0  0  0  0  0
    2.5123    0.8986    0.9355 H   0  0  0  0  0  0  0  0  0  0  0  0
   -1.3499   -0.0040   -0.0461 H   0  0  0  0  0  0  0  0  0  0  0  0
   -4.5999    0.8857    5.1846 H   0  0  0  0  0  0  0  0  0  0  0  0
   -5.6031   -1.8439    5.3026 H   0  0  0  0  0  0  0  0  0  0  0  0
   -6.3647   -4.1456    5.8015 H   0  0  0  0  0  0  0  0  0  0  0  0
   -7.6615   -4.6125    7.8858 H   0  0  0  0  0  0  0  0  0  0  0  0
   -8.1784   -2.7393    9.4521 H   0  0  0  0  0  0  0  0  0  0  0  0
   -7.4208   -0.4509    8.9515 H   0  0  0  0  0  0  0  0  0  0  0  0
   -7.0565    1.5697    8.2846 H   0  0  0  0  0  0  0  0  0  0  0  0
   -5.6649    2.4025    7.5585 H   0  0  0  0  0  0  0  0  0  0  0  0
   -5.3910    1.0460    8.6883 H   0  0  0  0  0  0  0  0  0  0  0  0
   -8.0385    0.9927    6.0148 H   0  0  0  0  0  0  0  0  0  0  0  0
   -7.0085    0.3168    4.7334 H   0  0  0  0  0  0  0  0  0  0  0  0
   -6.7441    1.9956    5.3073 H   0  0  0  0  0  0  0  0  0  0  0  0
  2  1  2  0  0  0  0
  3  4  1  0  0  0  0
  3  2  1  0  0  0  0
  4 26  1  0  0  0  0
  5 27  1  0  0  0  0
  5  4  2  0  0  0  0
  6 12  1  6  0  0  0
  6  5  1  0  0  0  0
  7  8  1  0  0  0  0
  7  6  1  0  0  0  0
  8  3  2  0  0  0  0
  9  7  2  0  0  0  0
 10 11  1  0  0  0  0
 10  9  2  0  0  0  0
 11 12  1  0  0  0  0
 12 13  2  0  0  0  0
 14 30  1  0  0  0  0
 14 11  1  0  0  0  0
 15 10  1  0  0  0  0
 16 17  1  0  0  0  0
 16  2  1  0  0  0  0
 17 18  1  0  0  0  0
 17 24  1  0  0  0  0
 18 23  2  0  0  0  0
 19 20  2  0  0  0  0
 19 18  1  0  0  0  0
 20 21  1  0  0  0  0
 21 36  1  0  0  0  0
 21 22  2  0  0  0  0
 22 37  1  0  0  0  0
 23 22  1  0  0  0  0
 23 38  1  0  0  0  0
 24 39  1  0  0  0  0
 24 41  1  0  0  0  0
 25 42  1  0  0  0  0
 25 17  1  0  0  0  0
 28  8  1  0  0  0  0
 29 14  1  0  0  0  0
 31 14  1  0  0  0  0
 32 15  1  0  0  0  0
 33 16  1  0  0  0  0
 34 19  1  0  0  0  0
 35 20  1  0  0  0  0
 40 24  1  0  0  0  0
 43 25  1  0  0  0  0
 44 25  1  0  0  0  0
M  RAD  1   6   2
M  END
