35744357.xyz
 OpenBabel08132112123D
COc1ncccc1NC(=O)c1ccc2c(c1)nc([nH]c2=O)S
 35 37  0  0  1  0  0  0  0  0999 V2000
    3.2330    1.8398   11.4494 C   0  0  0  0  0  0  0  0  0  0  0  0
    3.5082    1.3405   10.1466 O   0  0  0  0  0  0  0  0  0  0  0  0
    4.7893    0.9984    9.8654 C   0  0  0  0  0  0  0  0  0  0  0  0
    5.7266    1.1247   10.7767 N   0  0  0  0  0  0  0  0  0  0  0  0
    6.9831    0.7732   10.4551 C   0  0  0  0  0  0  0  0  0  0  0  0
    7.3235    0.2848    9.2000 C   0  0  0  0  0  0  0  0  0  0  0  0
    6.3256    0.1506    8.2224 C   0  0  0  0  0  0  0  0  0  0  0  0
    5.0191    0.5132    8.5488 C   0  0  1  0  0  0  0  0  0  0  0  0
    3.9069    0.4395    7.7066 N   0  0  0  0  0  0  0  0  0  0  0  0
    3.8611    0.0058    6.4058 C   0  0  0  0  0  0  0  0  0  0  0  0
    4.8438   -0.3484    5.7751 O   0  0  0  0  0  0  0  0  0  0  0  0
    2.4853    0.0107    5.7894 C   0  0  0  0  0  0  0  0  0  0  0  0
    1.2960   -0.0011    6.5536 C   0  0  0  0  0  0  0  0  0  0  0  0
    0.0622   -0.0060    5.9207 C   0  0  0  0  0  0  0  0  0  0  0  0
   -0.0090    0.0009    4.5192 C   0  0  1  0  0  0  0  0  0  0  0  0
    1.1755   -0.0001    3.7389 C   0  0  0  0  0  0  0  0  0  0  0  0
    2.4187   -0.0031    4.3990 C   0  0  0  0  0  0  0  0  0  0  0  0
    1.1471   -0.0000    2.3564 N   0  0  0  0  0  0  0  0  0  0  0  0
    0.0000    0.0000    1.7749 C   0  0  0  0  0  0  0  0  0  0  0  0
   -1.2020    0.0004    2.4453 N   0  0  0  0  0  0  0  0  0  0  0  0
   -1.3156    0.0003    3.8465 C   0  0  0  0  0  0  0  0  0  0  0  0
   -2.4080    0.0001    4.3780 O   0  0  0  0  0  0  0  0  0  0  0  0
    0.0000    0.0000    0.0000 S   0  0  0  0  0  0  0  0  0  0  0  0
    2.1572    2.0556   11.4706 H   0  0  0  0  0  0  0  0  0  0  0  0
    3.8113    2.7543   11.6513 H   0  0  0  0  0  0  0  0  0  0  0  0
    3.4901    1.0958   12.2188 H   0  0  0  0  0  0  0  0  0  0  0  0
    7.7375    0.8911   11.2395 H   0  0  0  0  0  0  0  0  0  0  0  0
    8.3552    0.0093    8.9745 H   0  0  0  0  0  0  0  0  0  0  0  0
    6.5387   -0.2227    7.2235 H   0  0  0  0  0  0  0  0  0  0  0  0
    3.0580    0.8026    8.1243 H   0  0  0  0  0  0  0  0  0  0  0  0
    1.3335   -0.0413    7.6442 H   0  0  0  0  0  0  0  0  0  0  0  0
   -0.8709   -0.0232    6.4864 H   0  0  0  0  0  0  0  0  0  0  0  0
    3.3368   -0.0163    3.8120 H   0  0  0  0  0  0  0  0  0  0  0  0
   -2.0874    0.0003    1.9479 H   0  0  0  0  0  0  0  0  0  0  0  0
   -1.3430   -0.0017   -0.1671 H   0  0  0  0  0  0  0  0  0  0  0  0
  1 24  1  0  0  0  0
  1 25  1  0  0  0  0
  1 26  1  0  0  0  0
  2  1  1  0  0  0  0
  3  2  1  0  0  0  0
  3  4  2  0  0  0  0
  5  4  2  0  0  0  0
  5 27  1  0  0  0  0
  6  5  1  0  0  0  0
  7  8  1  0  0  0  0
  7  6  2  0  0  0  0
  8  9  1  1  0  0  0
  8  3  1  0  0  0  0
  9 30  1  0  0  0  0
 10  9  1  0  0  0  0
 11 10  2  0  0  0  0
 12 10  1  0  0  0  0
 12 13  1  0  0  0  0
 13 31  1  0  0  0  0
 14 32  1  0  0  0  0
 14 13  2  0  0  0  0
 15 16  1  6  0  0  0
 15 14  1  0  0  0  0
 16 17  1  0  0  0  0
 17 12  2  0  0  0  0
 18 16  2  0  0  0  0
 19 18  2  0  0  0  0
 19 20  1  0  0  0  0
 20 21  1  0  0  0  0
 21 22  2  0  0  0  0
 21 15  1  0  0  0  0
 23 19  1  0  0  0  0
 28  6  1  0  0  0  0
 29  7  1  0  0  0  0
 33 17  1  0  0  0  0
 34 20  1  0  0  0  0
 35 23  1  0  0  0  0
M  RAD  2   8   2  15   2
M  END
