35766117.xyz
 OpenBabel08132112123D
Cc1ccc(cc1)OC(C(=O)N1CCC(CC1)c1nnc(o1)S)C
 45 47  0  0  1  0  0  0  0  0999 V2000
    1.2814    8.9388    8.9950 C   0  0  0  0  0  0  0  0  0  0  0  0
    0.7545    7.9839    7.9535 C   0  0  0  0  0  0  0  0  0  0  0  0
    0.0018    8.4524    6.8608 C   0  0  0  0  0  0  0  0  0  0  0  0
   -0.4862    7.5866    5.8901 C   0  0  0  0  0  0  0  0  0  0  0  0
   -0.2362    6.2073    5.9790 C   0  0  0  0  0  0  0  0  0  0  0  0
    0.5122    5.7202    7.0574 C   0  0  0  0  0  0  0  0  0  0  0  0
    0.9951    6.6093    8.0258 C   0  0  0  0  0  0  0  0  0  0  0  0
   -0.7709    5.4398    4.9933 O   0  0  0  0  0  0  0  0  0  0  0  0
   -0.5694    4.0419    5.0104 C   0  0  2  0  0  0  0  0  0  0  0  0
    0.9214    3.7261    4.7546 C   0  0  0  0  0  0  0  0  0  0  0  0
    1.5805    4.4489    4.0300 O   0  0  0  0  0  0  0  0  0  0  0  0
    1.4463    2.6125    5.3646 N   0  0  0  0  0  0  0  0  0  0  0  0
    2.8645    2.3235    5.1994 C   0  0  0  0  0  0  0  0  0  0  0  0
    3.0711    1.0122    4.4258 C   0  0  0  0  0  0  0  0  0  0  0  0
    1.9346   -0.0024    4.7355 C   0  0  1  0  0  0  0  0  0  0  0  0
    1.3400    0.2715    6.1261 C   0  0  0  0  0  0  0  0  0  0  0  0
    0.7019    1.6714    6.2005 C   0  0  0  0  0  0  0  0  0  0  0  0
    0.8590    0.0131    3.6986 C   0  0  0  0  0  0  0  0  0  0  0  0
   -0.4255    0.0122    3.8485 N   0  0  0  0  0  0  0  0  0  0  0  0
   -0.9944    0.0046    2.5772 N   0  0  0  0  0  0  0  0  0  0  0  0
   -0.0000    0.0000    1.7468 C   0  0  0  0  0  0  0  0  0  0  0  0
    1.2039    0.0000    2.3734 O   0  0  0  0  0  0  0  0  0  0  0  0
    0.0000    0.0000    0.0000 S   0  0  0  0  0  0  0  0  0  0  0  0
   -1.4297    3.4613    3.8955 C   0  0  0  0  0  0  0  0  0  0  0  0
    0.4652    9.5082    9.4707 H   0  0  0  0  0  0  0  0  0  0  0  0
    1.8257    8.4072    9.7896 H   0  0  0  0  0  0  0  0  0  0  0  0
    1.9719    9.6768    8.5528 H   0  0  0  0  0  0  0  0  0  0  0  0
   -0.2041    9.5230    6.7705 H   0  0  0  0  0  0  0  0  0  0  0  0
   -1.0678    7.9510    5.0414 H   0  0  0  0  0  0  0  0  0  0  0  0
    0.7400    4.6594    7.1547 H   0  0  0  0  0  0  0  0  0  0  0  0
    1.5807    6.2104    8.8589 H   0  0  0  0  0  0  0  0  0  0  0  0
   -0.8933    3.6450    5.9872 H   0  0  0  0  0  0  0  0  0  0  0  0
    3.3281    2.2583    6.1992 H   0  0  0  0  0  0  0  0  0  0  0  0
    3.3144    3.1729    4.6735 H   0  0  0  0  0  0  0  0  0  0  0  0
    4.0406    0.5719    4.7041 H   0  0  0  0  0  0  0  0  0  0  0  0
    3.1088    1.2090    3.3453 H   0  0  0  0  0  0  0  0  0  0  0  0
    2.3617   -1.0200    4.7236 H   0  0  0  0  0  0  0  0  0  0  0  0
    0.5791   -0.4799    6.3798 H   0  0  0  0  0  0  0  0  0  0  0  0
    2.1514    0.1734    6.8631 H   0  0  0  0  0  0  0  0  0  0  0  0
   -0.3281    1.5967    5.8372 H   0  0  0  0  0  0  0  0  0  0  0  0
    0.6706    2.0095    7.2542 H   0  0  0  0  0  0  0  0  0  0  0  0
   -1.3513    0.0076   -0.0552 H   0  0  0  0  0  0  0  0  0  0  0  0
   -1.0765    3.8503    2.9293 H   0  0  0  0  0  0  0  0  0  0  0  0
   -2.4755    3.7691    4.0392 H   0  0  0  0  0  0  0  0  0  0  0  0
   -1.3803    2.3644    3.8787 H   0  0  0  0  0  0  0  0  0  0  0  0
  1 25  1  0  0  0  0
  1 26  1  0  0  0  0
  2  7  1  0  0  0  0
  2  1  1  0  0  0  0
  3  2  2  0  0  0  0
  4  5  2  0  0  0  0
  4  3  1  0  0  0  0
  5  6  1  0  0  0  0
  6 30  1  0  0  0  0
  6  7  2  0  0  0  0
  7 31  1  0  0  0  0
  8  9  1  0  0  0  0
  8  5  1  0  0  0  0
  9 32  1  1  0  0  0
 10  9  1  0  0  0  0
 10 12  1  0  0  0  0
 11 10  2  0  0  0  0
 12 17  1  0  0  0  0
 13 12  1  0  0  0  0
 13 33  1  0  0  0  0
 14 35  1  0  0  0  0
 14 15  1  0  0  0  0
 14 13  1  0  0  0  0
 15 37  1  1  0  0  0
 15 16  1  0  0  0  0
 16 17  1  0  0  0  0
 16 38  1  0  0  0  0
 16 39  1  0  0  0  0
 17 41  1  0  0  0  0
 18 19  2  0  0  0  0
 18 15  1  0  0  0  0
 20 19  1  0  0  0  0
 21 22  1  0  0  0  0
 21 20  2  0  0  0  0
 22 18  1  0  0  0  0
 23 21  1  0  0  0  0
 24 44  1  0  0  0  0
 24  9  1  0  0  0  0
 27  1  1  0  0  0  0
 28  3  1  0  0  0  0
 29  4  1  0  0  0  0
 34 13  1  0  0  0  0
 36 14  1  0  0  0  0
 40 17  1  0  0  0  0
 42 23  1  0  0  0  0
 43 24  1  0  0  0  0
 45 24  1  0  0  0  0
M  END
