36009339.xyz
 OpenBabel08132112123D
CCCCCCCCCCCCCCCCCCCCCCS
 69 68  0  0  0  0  0  0  0  0999 V2000
    8.1433   13.5900   10.3600 C   0  0  0  0  0  0  0  0  0  0  0  0
    6.9068   12.8726   10.8995 C   0  0  0  0  0  0  0  0  0  0  0  0
    7.1276   11.3718   11.1080 C   0  0  0  0  0  0  0  0  0  0  0  0
    5.9361   10.6193   11.7108 C   0  0  0  0  0  0  0  0  0  0  0  0
    4.7016   10.5570   10.8076 C   0  0  0  0  0  0  0  0  0  0  0  0
    3.5024    9.8233   11.4226 C   0  0  0  0  0  0  0  0  0  0  0  0
    3.7484    8.3631   11.8236 C   0  0  0  0  0  0  0  0  0  0  0  0
    4.2133    7.4597   10.6802 C   0  0  0  0  0  0  0  0  0  0  0  0
    4.3476    5.9910   11.0895 C   0  0  0  0  0  0  0  0  0  0  0  0
    4.9105    5.0714   10.0011 C   0  0  0  0  0  0  0  0  0  0  0  0
    4.0269    4.9353    8.7592 C   0  0  0  0  0  0  0  0  0  0  0  0
    4.5881    3.9595    7.7224 C   0  0  0  0  0  0  0  0  0  0  0  0
    3.6945    3.7480    6.4957 C   0  0  0  0  0  0  0  0  0  0  0  0
    3.5346    4.9929    5.6159 C   0  0  0  0  0  0  0  0  0  0  0  0
    2.7655    4.8057    4.2981 C   0  0  0  0  0  0  0  0  0  0  0  0
    1.2309    4.8464    4.3856 C   0  0  0  0  0  0  0  0  0  0  0  0
    0.4669    3.6897    5.0508 C   0  0  0  0  0  0  0  0  0  0  0  0
    0.4527    2.3516    4.2923 C   0  0  0  0  0  0  0  0  0  0  0  0
    1.6743    1.4493    4.4948 C   0  0  0  0  0  0  0  0  0  0  0  0
    1.5695    0.0473    3.8808 C   0  0  0  0  0  0  0  0  0  0  0  0
    1.4423    0.0000    2.3465 C   0  0  0  0  0  0  0  0  0  0  0  0
   -0.0000   -0.0000    1.8408 C   0  0  0  0  0  0  0  0  0  0  0  0
    0.0000    0.0000    0.0000 S   0  0  0  0  0  0  0  0  0  0  0  0
    7.9608   14.6673   10.2200 H   0  0  0  0  0  0  0  0  0  0  0  0
    8.4512   13.1745    9.3859 H   0  0  0  0  0  0  0  0  0  0  0  0
    8.9992   13.4825   11.0473 H   0  0  0  0  0  0  0  0  0  0  0  0
    6.0621   13.0350   10.2082 H   0  0  0  0  0  0  0  0  0  0  0  0
    6.6022   13.3277   11.8597 H   0  0  0  0  0  0  0  0  0  0  0  0
    7.3994   10.9076   10.1413 H   0  0  0  0  0  0  0  0  0  0  0  0
    8.0061   11.2337   11.7635 H   0  0  0  0  0  0  0  0  0  0  0  0
    5.6584   11.0854   12.6748 H   0  0  0  0  0  0  0  0  0  0  0  0
    6.2596    9.5937   11.9560 H   0  0  0  0  0  0  0  0  0  0  0  0
    4.3814   11.5799   10.5483 H   0  0  0  0  0  0  0  0  0  0  0  0
    4.9817   10.0828    9.8498 H   0  0  0  0  0  0  0  0  0  0  0  0
    2.6636    9.8580   10.7045 H   0  0  0  0  0  0  0  0  0  0  0  0
    3.1614   10.3817   12.3127 H   0  0  0  0  0  0  0  0  0  0  0  0
    4.4858    8.3161   12.6445 H   0  0  0  0  0  0  0  0  0  0  0  0
    2.8135    7.9530   12.2452 H   0  0  0  0  0  0  0  0  0  0  0  0
    5.1874    7.8111   10.2956 H   0  0  0  0  0  0  0  0  0  0  0  0
    3.5054    7.5550    9.8379 H   0  0  0  0  0  0  0  0  0  0  0  0
    3.3607    5.6121   11.4139 H   0  0  0  0  0  0  0  0  0  0  0  0
    4.9989    5.9312   11.9797 H   0  0  0  0  0  0  0  0  0  0  0  0
    5.9088    5.4369    9.6963 H   0  0  0  0  0  0  0  0  0  0  0  0
    5.0772    4.0674   10.4306 H   0  0  0  0  0  0  0  0  0  0  0  0
    3.8870    5.9258    8.2960 H   0  0  0  0  0  0  0  0  0  0  0  0
    3.0180    4.5998    9.0655 H   0  0  0  0  0  0  0  0  0  0  0  0
    5.5834    4.3123    7.3938 H   0  0  0  0  0  0  0  0  0  0  0  0
    4.7616    2.9841    8.2110 H   0  0  0  0  0  0  0  0  0  0  0  0
    4.1172    2.9347    5.8810 H   0  0  0  0  0  0  0  0  0  0  0  0
    2.7092    3.3869    6.8322 H   0  0  0  0  0  0  0  0  0  0  0  0
    3.0539    5.8035    6.1917 H   0  0  0  0  0  0  0  0  0  0  0  0
    4.5484    5.3615    5.3765 H   0  0  0  0  0  0  0  0  0  0  0  0
    3.0612    5.6261    3.6221 H   0  0  0  0  0  0  0  0  0  0  0  0
    3.1038    3.8832    3.7969 H   0  0  0  0  0  0  0  0  0  0  0  0
    0.9544    5.7805    4.9075 H   0  0  0  0  0  0  0  0  0  0  0  0
    0.8350    4.9553    3.3596 H   0  0  0  0  0  0  0  0  0  0  0  0
    0.8211    3.5284    6.0826 H   0  0  0  0  0  0  0  0  0  0  0  0
   -0.5795    4.0243    5.1529 H   0  0  0  0  0  0  0  0  0  0  0  0
   -0.4413    1.7834    4.6063 H   0  0  0  0  0  0  0  0  0  0  0  0
    0.3130    2.5619    3.2172 H   0  0  0  0  0  0  0  0  0  0  0  0
    1.8545    1.3412    5.5784 H   0  0  0  0  0  0  0  0  0  0  0  0
    2.5755    1.9388    4.0921 H   0  0  0  0  0  0  0  0  0  0  0  0
    0.7211   -0.4964    4.3360 H   0  0  0  0  0  0  0  0  0  0  0  0
    2.4721   -0.5140    4.1738 H   0  0  0  0  0  0  0  0  0  0  0  0
    1.9875    0.8524    1.9032 H   0  0  0  0  0  0  0  0  0  0  0  0
    1.9354   -0.9080    1.9613 H   0  0  0  0  0  0  0  0  0  0  0  0
   -0.5240   -0.8974    2.2050 H   0  0  0  0  0  0  0  0  0  0  0  0
   -0.5476    0.8818    2.1991 H   0  0  0  0  0  0  0  0  0  0  0  0
   -1.3430   -0.0271   -0.1594 H   0  0  0  0  0  0  0  0  0  0  0  0
  1  2  1  0  0  0  0
  1 26  1  0  0  0  0
  2  3  1  0  0  0  0
  2 28  1  0  0  0  0
  3  4  1  0  0  0  0
  3 30  1  0  0  0  0
  4 32  1  0  0  0  0
  4 31  1  0  0  0  0
  5  6  1  0  0  0  0
  5  4  1  0  0  0  0
  6  7  1  0  0  0  0
  6 36  1  0  0  0  0
  7 38  1  0  0  0  0
  7 37  1  0  0  0  0
  8  9  1  0  0  0  0
  8  7  1  0  0  0  0
  9 41  1  0  0  0  0
  9 42  1  0  0  0  0
 10 44  1  0  0  0  0
 10  9  1  0  0  0  0
 11 46  1  0  0  0  0
 11 10  1  0  0  0  0
 12 48  1  0  0  0  0
 12 11  1  0  0  0  0
 13 50  1  0  0  0  0
 13 12  1  0  0  0  0
 14 51  1  0  0  0  0
 14 13  1  0  0  0  0
 15 16  1  0  0  0  0
 15 14  1  0  0  0  0
 16 55  1  0  0  0  0
 16 17  1  0  0  0  0
 17 58  1  0  0  0  0
 17 57  1  0  0  0  0
 18 19  1  0  0  0  0
 18 59  1  0  0  0  0
 18 17  1  0  0  0  0
 19 61  1  0  0  0  0
 20 64  1  0  0  0  0
 20 63  1  0  0  0  0
 20 19  1  0  0  0  0
 21 20  1  0  0  0  0
 22 68  1  0  0  0  0
 22 67  1  0  0  0  0
 22 21  1  0  0  0  0
 23 22  1  0  0  0  0
 24  1  1  0  0  0  0
 25  1  1  0  0  0  0
 27  2  1  0  0  0  0
 29  3  1  0  0  0  0
 33  5  1  0  0  0  0
 34  5  1  0  0  0  0
 35  6  1  0  0  0  0
 39  8  1  0  0  0  0
 40  8  1  0  0  0  0
 43 10  1  0  0  0  0
 45 11  1  0  0  0  0
 47 12  1  0  0  0  0
 49 13  1  0  0  0  0
 52 14  1  0  0  0  0
 53 15  1  0  0  0  0
 54 15  1  0  0  0  0
 56 16  1  0  0  0  0
 60 18  1  0  0  0  0
 62 19  1  0  0  0  0
 65 21  1  0  0  0  0
 66 21  1  0  0  0  0
 69 23  1  0  0  0  0
M  END
