36707456.xyz
 OpenBabel08132112123D
CCCSCC(=O)N1CCC(CC1)c1nnc(n1C(C)C)S
 48 49  0  0  0  0  0  0  0  0999 V2000
   -1.1789    2.2182   14.1012 C   0  0  0  0  0  0  0  0  0  0  0  0
    0.2566    2.3360   13.5885 C   0  0  0  0  0  0  0  0  0  0  0  0
    0.4607    1.7994   12.1707 C   0  0  0  0  0  0  0  0  0  0  0  0
   -0.4510    2.8206   10.9488 S   0  0  0  0  0  0  0  0  0  0  0  0
   -0.0268    1.8416    9.4740 C   0  0  0  0  0  0  0  0  0  0  0  0
   -0.6578    2.4824    8.2388 C   0  0  0  0  0  0  0  0  0  0  0  0
   -1.3545    3.4803    8.3369 O   0  0  0  0  0  0  0  0  0  0  0  0
   -0.3865    1.8876    7.0342 N   0  0  0  0  0  0  0  0  0  0  0  0
    0.2899    0.6102    6.8391 C   0  0  0  0  0  0  0  0  0  0  0  0
   -0.6949   -0.4513    6.3306 C   0  0  0  0  0  0  0  0  0  0  0  0
   -1.4796    0.0110    5.0853 C   0  0  0  0  0  0  0  0  0  0  0  0
   -2.0884    1.4136    5.3365 C   0  0  0  0  0  0  0  0  0  0  0  0
   -1.0321    2.4026    5.8330 C   0  0  0  0  0  0  0  0  0  0  0  0
   -0.6279   -0.0126    3.8472 C   0  0  0  0  0  0  0  0  0  0  0  0
    0.6833   -0.0062    3.8116 N   0  0  0  0  0  0  0  0  0  0  0  0
    1.0843   -0.0000    2.5012 N   0  0  0  0  0  0  0  0  0  0  0  0
   -0.0000    0.0000    1.7634 C   0  0  0  0  0  0  0  0  0  0  0  0
   -1.1277   -0.0046    2.5538 N   0  0  0  0  0  0  0  0  0  0  0  0
   -2.5411   -0.0426    2.1453 C   0  0  0  0  0  0  0  0  0  0  0  0
   -2.9279    1.2144    1.3640 C   0  0  0  0  0  0  0  0  0  0  0  0
   -2.8697   -1.3439    1.4109 C   0  0  0  0  0  0  0  0  0  0  0  0
    0.0000    0.0000    0.0000 S   0  0  0  0  0  0  0  0  0  0  0  0
   -1.2667    2.6058   15.1283 H   0  0  0  0  0  0  0  0  0  0  0  0
   -1.8798    2.7789   13.4643 H   0  0  0  0  0  0  0  0  0  0  0  0
   -1.5101    1.1662   14.1091 H   0  0  0  0  0  0  0  0  0  0  0  0
    0.9367    1.7830   14.2596 H   0  0  0  0  0  0  0  0  0  0  0  0
    0.5841    3.3897   13.6224 H   0  0  0  0  0  0  0  0  0  0  0  0
    0.1087    0.7545   12.1051 H   0  0  0  0  0  0  0  0  0  0  0  0
    1.5326    1.8056   11.9117 H   0  0  0  0  0  0  0  0  0  0  0  0
    1.0686    1.7866    9.3576 H   0  0  0  0  0  0  0  0  0  0  0  0
   -0.3918    0.8074    9.5955 H   0  0  0  0  0  0  0  0  0  0  0  0
    0.7500    0.2769    7.7757 H   0  0  0  0  0  0  0  0  0  0  0  0
    1.0926    0.7355    6.0972 H   0  0  0  0  0  0  0  0  0  0  0  0
   -1.4242   -0.6701    7.1286 H   0  0  0  0  0  0  0  0  0  0  0  0
   -0.1494   -1.3801    6.1077 H   0  0  0  0  0  0  0  0  0  0  0  0
   -2.3076   -0.7014    4.9307 H   0  0  0  0  0  0  0  0  0  0  0  0
   -2.8796    1.3271    6.0992 H   0  0  0  0  0  0  0  0  0  0  0  0
   -2.5626    1.8038    4.4219 H   0  0  0  0  0  0  0  0  0  0  0  0
   -0.2639    2.5614    5.0568 H   0  0  0  0  0  0  0  0  0  0  0  0
   -1.4848    3.3683    6.0852 H   0  0  0  0  0  0  0  0  0  0  0  0
   -3.1066   -0.0387    3.0867 H   0  0  0  0  0  0  0  0  0  0  0  0
   -2.6928    2.1208    1.9416 H   0  0  0  0  0  0  0  0  0  0  0  0
   -2.3961    1.2767    0.4032 H   0  0  0  0  0  0  0  0  0  0  0  0
   -4.0082    1.2063    1.1552 H   0  0  0  0  0  0  0  0  0  0  0  0
   -2.6014   -2.2154    2.0266 H   0  0  0  0  0  0  0  0  0  0  0  0
   -3.9478   -1.3892    1.1950 H   0  0  0  0  0  0  0  0  0  0  0  0
   -2.3273   -1.4206    0.4570 H   0  0  0  0  0  0  0  0  0  0  0  0
    1.3521   -0.0152   -0.0398 H   0  0  0  0  0  0  0  0  0  0  0  0
  1 25  1  0  0  0  0
  1 23  1  0  0  0  0
  2 27  1  0  0  0  0
  2  1  1  0  0  0  0
  2 26  1  0  0  0  0
  3  2  1  0  0  0  0
  4  3  1  0  0  0  0
  5 31  1  0  0  0  0
  5  4  1  0  0  0  0
  6  7  2  0  0  0  0
  6  5  1  0  0  0  0
  8  6  1  0  0  0  0
  9  8  1  0  0  0  0
  9 32  1  0  0  0  0
 10  9  1  0  0  0  0
 10 34  1  0  0  0  0
 11 12  1  0  0  0  0
 11 10  1  0  0  0  0
 12 13  1  0  0  0  0
 12 37  1  0  0  0  0
 13 40  1  0  0  0  0
 13  8  1  0  0  0  0
 14 11  1  0  0  0  0
 15 14  2  0  0  0  0
 16 15  1  0  0  0  0
 17 16  2  0  0  0  0
 17 18  1  0  0  0  0
 18 14  1  0  0  0  0
 19 18  1  0  0  0  0
 19 41  1  0  0  0  0
 20 42  1  0  0  0  0
 20 19  1  0  0  0  0
 21 45  1  0  0  0  0
 21 19  1  0  0  0  0
 22 17  1  0  0  0  0
 24  1  1  0  0  0  0
 28  3  1  0  0  0  0
 29  3  1  0  0  0  0
 30  5  1  0  0  0  0
 33  9  1  0  0  0  0
 35 10  1  0  0  0  0
 36 11  1  0  0  0  0
 38 12  1  0  0  0  0
 39 13  1  0  0  0  0
 43 20  1  0  0  0  0
 44 20  1  0  0  0  0
 46 21  1  0  0  0  0
 47 21  1  0  0  0  0
 48 22  1  0  0  0  0
M  END
