36764018.xyz
 OpenBabel08132112123D
Fc1cc(Cl)c(cc1C)S
 16 16  0  0  0  0  0  0  0  0999 V2000
    0.3038   -0.0016    5.9011 F   0  0  0  0  0  0  0  0  0  0  0  0
    0.2104   -0.0011    4.5603 C   0  0  0  0  0  0  0  0  0  0  0  0
   -1.0471   -0.0010    3.9762 C   0  0  0  0  0  0  0  0  0  0  0  0
   -1.1504   -0.0005    2.5819 C   0  0  0  0  0  0  0  0  0  0  0  0
   -2.7559   -0.0006    1.8837 Cl  0  0  0  0  0  0  0  0  0  0  0  0
   -0.0000   -0.0000    1.7737 C   0  0  0  0  0  0  0  0  0  0  0  0
    1.2517   -0.0000    2.4167 C   0  0  0  0  0  0  0  0  0  0  0  0
    1.3902   -0.0007    3.8058 C   0  0  0  0  0  0  0  0  0  0  0  0
    2.7286   -0.0008    4.4909 C   0  0  0  0  0  0  0  0  0  0  0  0
    0.0000    0.0000    0.0000 S   0  0  0  0  0  0  0  0  0  0  0  0
   -1.9393   -0.0013    4.6021 H   0  0  0  0  0  0  0  0  0  0  0  0
    2.1547    0.0006    1.8010 H   0  0  0  0  0  0  0  0  0  0  0  0
    2.8419    0.8827    5.1396 H   0  0  0  0  0  0  0  0  0  0  0  0
    2.8426   -0.8855    5.1378 H   0  0  0  0  0  0  0  0  0  0  0  0
    3.5474    0.0002    3.7583 H   0  0  0  0  0  0  0  0  0  0  0  0
   -1.3427    0.0047   -0.1452 H   0  0  0  0  0  0  0  0  0  0  0  0
  2  1  1  0  0  0  0
  3  2  1  0  0  0  0
  3 11  1  0  0  0  0
  4  3  2  0  0  0  0
  5  4  1  0  0  0  0
  6  7  2  0  0  0  0
  6  4  1  0  0  0  0
  7  8  1  0  0  0  0
  8  9  1  0  0  0  0
  8  2  2  0  0  0  0
  9 14  1  0  0  0  0
  9 13  1  0  0  0  0
 10  6  1  0  0  0  0
 12  7  1  0  0  0  0
 15  9  1  0  0  0  0
 16 10  1  0  0  0  0
M  END
