37018540.xyz
 OpenBabel08132112123D
O=C(Cc1c(F)cccc1Cl)NCCc1nnc(n1C)S
 35 36  0  0  0  0  0  0  0  0999 V2000
    4.7623    0.6509    4.4759 O   0  0  0  0  0  0  0  0  0  0  0  0
    4.5894    1.0178    5.6293 C   0  0  0  0  0  0  0  0  0  0  0  0
    5.7345    1.0352    6.6517 C   0  0  0  0  0  0  0  0  0  0  0  0
    5.9810    2.3923    7.2585 C   0  0  0  0  0  0  0  0  0  0  0  0
    6.8128    3.3071    6.5963 C   0  0  0  0  0  0  0  0  0  0  0  0
    7.3686    2.9242    5.4395 F   0  0  0  0  0  0  0  0  0  0  0  0
    7.0926    4.5792    7.0828 C   0  0  0  0  0  0  0  0  0  0  0  0
    6.5135    4.9789    8.2881 C   0  0  0  0  0  0  0  0  0  0  0  0
    5.6702    4.1131    8.9856 C   0  0  0  0  0  0  0  0  0  0  0  0
    5.4159    2.8437    8.4622 C   0  0  0  0  0  0  0  0  0  0  0  0
    4.3287    1.7874    9.3552 Cl  0  0  0  0  0  0  0  0  0  0  0  0
    3.3810    1.4362    6.0906 N   0  0  0  0  0  0  0  0  0  0  0  0
    2.2232    1.4368    5.2183 C   0  0  0  0  0  0  0  0  0  0  0  0
    1.6491    0.0248    4.9740 C   0  0  0  0  0  0  0  0  0  0  0  0
    0.7314   -0.0168    3.8017 C   0  0  0  0  0  0  0  0  0  0  0  0
   -0.5793   -0.0119    3.8411 N   0  0  0  0  0  0  0  0  0  0  0  0
   -1.0484   -0.0058    2.5491 N   0  0  0  0  0  0  0  0  0  0  0  0
   -0.0000   -0.0000    1.7608 C   0  0  0  0  0  0  0  0  0  0  0  0
    1.1628   -0.0000    2.4877 N   0  0  0  0  0  0  0  0  0  0  0  0
    2.5194   -0.0253    1.9668 C   0  0  0  0  0  0  0  0  0  0  0  0
    0.0000    0.0000    0.0000 S   0  0  0  0  0  0  0  0  0  0  0  0
    6.6235    0.6950    6.1096 H   0  0  0  0  0  0  0  0  0  0  0  0
    5.5057    0.3112    7.4478 H   0  0  0  0  0  0  0  0  0  0  0  0
    7.7541    5.2320    6.5118 H   0  0  0  0  0  0  0  0  0  0  0  0
    6.7185    5.9740    8.6877 H   0  0  0  0  0  0  0  0  0  0  0  0
    5.2065    4.4110    9.9260 H   0  0  0  0  0  0  0  0  0  0  0  0
    3.2669    1.6299    7.0796 H   0  0  0  0  0  0  0  0  0  0  0  0
    2.5257    1.8798    4.2578 H   0  0  0  0  0  0  0  0  0  0  0  0
    1.4502    2.0886    5.6494 H   0  0  0  0  0  0  0  0  0  0  0  0
    2.4881   -0.6705    4.8215 H   0  0  0  0  0  0  0  0  0  0  0  0
    1.0844   -0.3146    5.8535 H   0  0  0  0  0  0  0  0  0  0  0  0
    3.2407    0.1510    2.7762 H   0  0  0  0  0  0  0  0  0  0  0  0
    2.7360   -0.9972    1.4957 H   0  0  0  0  0  0  0  0  0  0  0  0
    2.6423    0.7658    1.2114 H   0  0  0  0  0  0  0  0  0  0  0  0
   -1.3500    0.0413   -0.0556 H   0  0  0  0  0  0  0  0  0  0  0  0
  1  2  2  0  0  0  0
  2 12  1  0  0  0  0
  2  3  1  0  0  0  0
  3  4  1  0  0  0  0
  3 23  1  0  0  0  0
  4 10  2  0  0  0  0
  5  7  2  0  0  0  0
  5  4  1  0  0  0  0
  6  5  1  0  0  0  0
  7  8  1  0  0  0  0
  8 25  1  0  0  0  0
  8  9  2  0  0  0  0
  9 26  1  0  0  0  0
 10  9  1  0  0  0  0
 10 11  1  0  0  0  0
 12 27  1  0  0  0  0
 13 29  1  0  0  0  0
 13 12  1  0  0  0  0
 14 13  1  0  0  0  0
 14 31  1  0  0  0  0
 15 16  2  0  0  0  0
 15 14  1  0  0  0  0
 17 16  1  0  0  0  0
 18 19  1  0  0  0  0
 18 17  2  0  0  0  0
 19 15  1  0  0  0  0
 20 19  1  0  0  0  0
 20 32  1  0  0  0  0
 21 18  1  0  0  0  0
 22  3  1  0  0  0  0
 24  7  1  0  0  0  0
 28 13  1  0  0  0  0
 30 14  1  0  0  0  0
 33 20  1  0  0  0  0
 34 20  1  0  0  0  0
 35 21  1  0  0  0  0
M  END
