37021713.xyz
 OpenBabel08132112123D
CCn1c(CCNC(=O)c2ccc(o2)Br)nnc1S
 32 33  0  0  0  0  0  0  0  0999 V2000
    3.1506    1.3958    1.9388 C   0  0  0  0  0  0  0  0  0  0  0  0
    2.5271    0.0047    1.9954 C   0  0  0  0  0  0  0  0  0  0  0  0
    1.1572   -0.0000    2.5003 N   0  0  0  0  0  0  0  0  0  0  0  0
    0.7147    0.0044    3.8095 C   0  0  0  0  0  0  0  0  0  0  0  0
    1.5998    0.1217    5.0037 C   0  0  0  0  0  0  0  0  0  0  0  0
    1.5828    1.5605    5.5596 C   0  0  0  0  0  0  0  0  0  0  0  0
    2.5448    1.7779    6.6216 N   0  0  0  0  0  0  0  0  0  0  0  0
    3.8723    1.9234    6.3291 C   0  0  0  0  0  0  0  0  0  0  0  0
    4.3071    1.9057    5.1867 O   0  0  0  0  0  0  0  0  0  0  0  0
    4.7475    2.1332    7.5054 C   0  0  0  0  0  0  0  0  0  0  0  0
    4.5291    2.4815    8.8177 C   0  0  0  0  0  0  0  0  0  0  0  0
    5.8112    2.5644    9.4419 C   0  0  0  0  0  0  0  0  0  0  0  0
    6.7105    2.2615    8.4510 C   0  0  0  0  0  0  0  0  0  0  0  0
    6.0886    2.0047    7.2880 O   0  0  0  0  0  0  0  0  0  0  0  0
    8.5684    2.1518    8.4710 Br  0  0  0  0  0  0  0  0  0  0  0  0
   -0.5967    0.0008    3.8375 N   0  0  0  0  0  0  0  0  0  0  0  0
   -1.0543   -0.0035    2.5420 N   0  0  0  0  0  0  0  0  0  0  0  0
   -0.0000    0.0000    1.7620 C   0  0  0  0  0  0  0  0  0  0  0  0
    0.0000    0.0000    0.0000 S   0  0  0  0  0  0  0  0  0  0  0  0
    4.1285    1.3431    1.4359 H   0  0  0  0  0  0  0  0  0  0  0  0
    3.3225    1.7975    2.9481 H   0  0  0  0  0  0  0  0  0  0  0  0
    2.5083    2.0853    1.3696 H   0  0  0  0  0  0  0  0  0  0  0  0
    3.1256   -0.6643    2.6321 H   0  0  0  0  0  0  0  0  0  0  0  0
    2.4991   -0.4577    0.9968 H   0  0  0  0  0  0  0  0  0  0  0  0
    2.6344   -0.1453    4.7491 H   0  0  0  0  0  0  0  0  0  0  0  0
    1.2497   -0.5765    5.7791 H   0  0  0  0  0  0  0  0  0  0  0  0
    0.5756    1.7983    5.9293 H   0  0  0  0  0  0  0  0  0  0  0  0
    1.8111    2.2636    4.7461 H   0  0  0  0  0  0  0  0  0  0  0  0
    2.2659    1.6049    7.5792 H   0  0  0  0  0  0  0  0  0  0  0  0
    3.5676    2.6827    9.2858 H   0  0  0  0  0  0  0  0  0  0  0  0
    6.0431    2.8183   10.4724 H   0  0  0  0  0  0  0  0  0  0  0  0
   -1.3447   -0.1275   -0.0531 H   0  0  0  0  0  0  0  0  0  0  0  0
  1  2  1  0  0  0  0
  1 21  1  0  0  0  0
  2  3  1  0  0  0  0
  2 23  1  0  0  0  0
  3  4  1  0  0  0  0
  4 16  2  0  0  0  0
  4  5  1  0  0  0  0
  5  6  1  0  0  0  0
  5 26  1  0  0  0  0
  6 27  1  0  0  0  0
  6  7  1  0  0  0  0
  7 29  1  0  0  0  0
  8  7  1  0  0  0  0
  8 10  1  0  0  0  0
  9  8  2  0  0  0  0
 10 11  2  0  0  0  0
 11 30  1  0  0  0  0
 11 12  1  0  0  0  0
 12 31  1  0  0  0  0
 13 15  1  0  0  0  0
 13 12  2  0  0  0  0
 14 10  1  0  0  0  0
 14 13  1  0  0  0  0
 17 16  1  0  0  0  0
 18  3  1  0  0  0  0
 18 17  2  0  0  0  0
 19 18  1  0  0  0  0
 20  1  1  0  0  0  0
 22  1  1  0  0  0  0
 24  2  1  0  0  0  0
 25  5  1  0  0  0  0
 28  6  1  0  0  0  0
 32 19  1  0  0  0  0
M  END
