37022697.xyz
 OpenBabel08132112123D
Clc1ccnc(c1)C(=O)NCc1nnc(n1C1CC1)S
 32 34  0  0  0  0  0  0  0  0999 V2000
    7.9183   -4.4716    4.9593 Cl  0  0  0  0  0  0  0  0  0  0  0  0
    6.2006   -4.2116    4.9263 C   0  0  0  0  0  0  0  0  0  0  0  0
    5.3283   -5.2987    4.8270 C   0  0  0  0  0  0  0  0  0  0  0  0
    3.9556   -5.0351    4.8043 C   0  0  0  0  0  0  0  0  0  0  0  0
    3.4459   -3.8055    4.8721 N   0  0  0  0  0  0  0  0  0  0  0  0
    4.2944   -2.7754    4.9668 C   0  0  0  0  0  0  0  0  0  0  0  0
    5.6842   -2.9184    4.9985 C   0  0  0  0  0  0  0  0  0  0  0  0
    3.7115   -1.3802    5.0368 C   0  0  0  0  0  0  0  0  0  0  0  0
    4.4282   -0.3893    5.0832 O   0  0  0  0  0  0  0  0  0  0  0  0
    2.3579   -1.3639    5.0300 N   0  0  0  0  0  0  0  0  0  0  0  0
    1.5767   -0.1431    5.0210 C   0  0  0  0  0  0  0  0  0  0  0  0
    0.6981   -0.0440    3.8157 C   0  0  0  0  0  0  0  0  0  0  0  0
   -0.6109   -0.0552    3.8332 N   0  0  0  0  0  0  0  0  0  0  0  0
   -1.0585   -0.0194    2.5343 N   0  0  0  0  0  0  0  0  0  0  0  0
   -0.0000   -0.0000    1.7598 C   0  0  0  0  0  0  0  0  0  0  0  0
    1.1533   -0.0000    2.5084 N   0  0  0  0  0  0  0  0  0  0  0  0
    2.5119   -0.0484    2.0466 C   0  0  0  0  0  0  0  0  0  0  0  0
    2.9829    0.9659    1.0343 C   0  0  0  0  0  0  0  0  0  0  0  0
    3.4649    1.0426    2.4540 C   0  0  0  0  0  0  0  0  0  0  0  0
    0.0000    0.0000    0.0000 S   0  0  0  0  0  0  0  0  0  0  0  0
    5.7086   -6.3189    4.7694 H   0  0  0  0  0  0  0  0  0  0  0  0
    3.2424   -5.8627    4.7273 H   0  0  0  0  0  0  0  0  0  0  0  0
    6.3152   -2.0339    5.0779 H   0  0  0  0  0  0  0  0  0  0  0  0
    1.9002   -2.2712    4.9787 H   0  0  0  0  0  0  0  0  0  0  0  0
    0.9111   -0.0912    5.8961 H   0  0  0  0  0  0  0  0  0  0  0  0
    2.2942    0.6871    5.0811 H   0  0  0  0  0  0  0  0  0  0  0  0
    2.9110   -1.0653    1.9698 H   0  0  0  0  0  0  0  0  0  0  0  0
    2.2618    1.7151    0.6995 H   0  0  0  0  0  0  0  0  0  0  0  0
    3.6617    0.6107    0.2553 H   0  0  0  0  0  0  0  0  0  0  0  0
    4.4817    0.7446    2.7126 H   0  0  0  0  0  0  0  0  0  0  0  0
    3.0610    1.8441    3.0763 H   0  0  0  0  0  0  0  0  0  0  0  0
   -1.3513   -0.0409   -0.0440 H   0  0  0  0  0  0  0  0  0  0  0  0
  2  1  1  0  0  0  0
  2  7  2  0  0  0  0
  3  2  1  0  0  0  0
  4  3  1  0  0  0  0
  4  5  2  0  0  0  0
  5  6  2  0  0  0  0
  6  7  1  0  0  0  0
  6  8  1  0  0  0  0
  7 23  1  0  0  0  0
  8  9  2  0  0  0  0
 10  8  1  0  0  0  0
 11 10  1  0  0  0  0
 11 26  1  0  0  0  0
 11 25  1  0  0  0  0
 12 13  2  0  0  0  0
 12 11  1  0  0  0  0
 14 13  1  0  0  0  0
 15 16  1  0  0  0  0
 15 14  2  0  0  0  0
 16 12  1  0  0  0  0
 17 19  1  0  0  0  0
 17 16  1  0  0  0  0
 18 17  1  0  0  0  0
 18 19  1  0  0  0  0
 19 30  1  0  0  0  0
 19 31  1  0  0  0  0
 20 15  1  0  0  0  0
 21  3  1  0  0  0  0
 22  4  1  0  0  0  0
 24 10  1  0  0  0  0
 27 17  1  0  0  0  0
 28 18  1  0  0  0  0
 29 18  1  0  0  0  0
 32 20  1  0  0  0  0
M  RAD  1   3   2
M  END
