37050139.xyz
 OpenBabel08132112123D
CCOC(=O)N1CCC(CC1)n1c(S)nc2c(c1=O)cccc2
 42 44  0  0  1  0  0  0  0  0999 V2000
   -9.2900    1.4732    0.2914 C   0  0  0  0  0  0  0  0  0  0  0  0
   -8.2229    0.8403   -0.5845 C   0  0  0  0  0  0  0  0  0  0  0  0
   -6.9208    0.9434    0.0057 O   0  0  0  0  0  0  0  0  0  0  0  0
   -6.6122    0.0171    0.9499 C   0  0  0  0  0  0  0  0  0  0  0  0
   -7.3540   -0.8901    1.2738 O   0  0  0  0  0  0  0  0  0  0  0  0
   -5.3715    0.2512    1.4647 N   0  0  0  0  0  0  0  0  0  0  0  0
   -4.5275    1.3408    0.9716 C   0  0  0  0  0  0  0  0  0  0  0  0
   -3.2038    1.3743    1.7303 C   0  0  0  0  0  0  0  0  0  0  0  0
   -2.5017    0.0118    1.6504 C   0  0  0  0  0  0  0  0  0  0  0  0
   -3.4461   -1.1640    2.0255 C   0  0  0  0  0  0  0  0  0  0  0  0
   -4.8227   -0.6665    2.4596 C   0  0  0  0  0  0  0  0  0  0  0  0
   -1.2336    0.0105    2.4136 N   0  0  0  0  0  0  0  0  0  0  0  0
    0.0000    0.0000    1.7855 C   0  0  0  0  0  0  0  0  0  0  0  0
    0.0000    0.0000    0.0000 S   0  0  0  0  0  0  0  0  0  0  0  0
    1.1399    0.0000    2.3883 N   0  0  0  0  0  0  0  0  0  0  0  0
    1.1626    0.0202    3.7657 C   0  0  0  0  0  0  0  0  0  0  0  0
   -0.0314    0.0620    4.5203 C   0  0  2  0  0  0  0  0  0  0  0  0
   -1.3198    0.0748    3.8249 C   0  0  0  0  0  0  0  0  0  0  0  0
   -2.4065    0.1297    4.3779 O   0  0  0  0  0  0  0  0  0  0  0  0
    0.0114    0.0928    5.9254 C   0  0  0  0  0  0  0  0  0  0  0  0
    1.2351    0.0777    6.5792 C   0  0  0  0  0  0  0  0  0  0  0  0
    2.4290    0.0341    5.8318 C   0  0  0  0  0  0  0  0  0  0  0  0
    2.3993    0.0066    4.4451 C   0  0  0  0  0  0  0  0  0  0  0  0
   -9.3818    0.9220    1.2384 H   0  0  0  0  0  0  0  0  0  0  0  0
  -10.2654    1.4453   -0.2202 H   0  0  0  0  0  0  0  0  0  0  0  0
   -9.0447    2.5241    0.5112 H   0  0  0  0  0  0  0  0  0  0  0  0
   -8.4500   -0.2200   -0.7695 H   0  0  0  0  0  0  0  0  0  0  0  0
   -8.1344    1.3625   -1.5485 H   0  0  0  0  0  0  0  0  0  0  0  0
   -5.0497    2.3045    1.0793 H   0  0  0  0  0  0  0  0  0  0  0  0
   -4.3407    1.2105   -0.1098 H   0  0  0  0  0  0  0  0  0  0  0  0
   -3.3717    1.6415    2.7814 H   0  0  0  0  0  0  0  0  0  0  0  0
   -2.5551    2.1454    1.2877 H   0  0  0  0  0  0  0  0  0  0  0  0
   -2.2140   -0.1344    0.6028 H   0  0  0  0  0  0  0  0  0  0  0  0
   -3.5594   -1.8166    1.1458 H   0  0  0  0  0  0  0  0  0  0  0  0
   -3.0097   -1.7716    2.8280 H   0  0  0  0  0  0  0  0  0  0  0  0
   -5.5308   -1.4974    2.5572 H   0  0  0  0  0  0  0  0  0  0  0  0
   -4.7376   -0.1718    3.4390 H   0  0  0  0  0  0  0  0  0  0  0  0
    1.3509   -0.0073   -0.0309 H   0  0  0  0  0  0  0  0  0  0  0  0
   -0.9337    0.1265    6.4700 H   0  0  0  0  0  0  0  0  0  0  0  0
    1.2756    0.0994    7.6702 H   0  0  0  0  0  0  0  0  0  0  0  0
    3.3905    0.0228    6.3512 H   0  0  0  0  0  0  0  0  0  0  0  0
    3.3131   -0.0249    3.8496 H   0  0  0  0  0  0  0  0  0  0  0  0
  1 26  1  0  0  0  0
  1 24  1  0  0  0  0
  2  3  1  0  0  0  0
  2  1  1  0  0  0  0
  3  4  1  0  0  0  0
  4  5  2  0  0  0  0
  4  6  1  0  0  0  0
  6 11  1  0  0  0  0
  7 29  1  0  0  0  0
  7  6  1  0  0  0  0
  7  8  1  0  0  0  0
  8 31  1  0  0  0  0
  9  8  1  0  0  0  0
  9 10  1  0  0  0  0
  9 12  1  0  0  0  0
 10 11  1  0  0  0  0
 10 35  1  0  0  0  0
 11 36  1  0  0  0  0
 11 37  1  0  0  0  0
 12 18  1  0  0  0  0
 13 15  2  0  0  0  0
 13 12  1  0  0  0  0
 14 13  1  0  0  0  0
 15 16  2  0  0  0  0
 16 23  1  0  0  0  0
 17 16  1  6  0  0  0
 17 20  1  0  0  0  0
 18 19  2  0  0  0  0
 18 17  1  0  0  0  0
 20 39  1  0  0  0  0
 20 21  2  0  0  0  0
 21 40  1  0  0  0  0
 22 41  1  0  0  0  0
 22 21  1  0  0  0  0
 23 22  2  0  0  0  0
 25  1  1  0  0  0  0
 27  2  1  0  0  0  0
 28  2  1  0  0  0  0
 30  7  1  0  0  0  0
 32  8  1  0  0  0  0
 33  9  1  0  0  0  0
 34 10  1  0  0  0  0
 38 14  1  0  0  0  0
 42 23  1  0  0  0  0
M  RAD  1  17   2
M  END
