37050107.xyz
 OpenBabel08132112123D
COc1cc(OC)ccc1Cn1c(S)nc2c(c1=O)cccc2
 39 41  0  0  1  0  0  0  0  0999 V2000
   -2.0415    3.7189    3.6607 C   0  0  0  0  0  0  0  0  0  0  0  0
   -2.1974    2.5433    2.8997 O   0  0  0  0  0  0  0  0  0  0  0  0
   -2.5357    2.6227    1.5920 C   0  0  0  0  0  0  0  0  0  0  0  0
   -2.7352    3.8272    0.9188 C   0  0  0  0  0  0  0  0  0  0  0  0
   -3.0978    3.8253   -0.4396 C   0  0  0  0  0  0  0  0  0  0  0  0
   -3.2694    5.0490   -0.9973 O   0  0  0  0  0  0  0  0  0  0  0  0
   -3.6323    5.1329   -2.3561 C   0  0  0  0  0  0  0  0  0  0  0  0
   -3.2565    2.6140   -1.1218 C   0  0  0  0  0  0  0  0  0  0  0  0
   -3.0386    1.4181   -0.4281 C   0  0  0  0  0  0  0  0  0  0  0  0
   -2.6799    1.3861    0.9163 C   0  0  0  0  0  0  0  0  0  0  0  0
   -2.4914    0.0766    1.6441 C   0  0  0  0  0  0  0  0  0  0  0  0
   -1.2318   -0.0249    2.3982 N   0  0  0  0  0  0  0  0  0  0  0  0
    0.0000    0.0000    1.7819 C   0  0  0  0  0  0  0  0  0  0  0  0
    0.0000    0.0000    0.0000 S   0  0  0  0  0  0  0  0  0  0  0  0
    1.1395    0.0000    2.3911 N   0  0  0  0  0  0  0  0  0  0  0  0
    1.1464   -0.0092    3.7684 C   0  0  0  0  0  0  0  0  0  0  0  0
   -0.0533   -0.0537    4.5145 C   0  0  1  0  0  0  0  0  0  0  0  0
   -1.3391   -0.0913    3.8123 C   0  0  0  0  0  0  0  0  0  0  0  0
   -2.4238   -0.1743    4.3580 O   0  0  0  0  0  0  0  0  0  0  0  0
   -0.0198   -0.0650    5.9199 C   0  0  0  0  0  0  0  0  0  0  0  0
    1.1976   -0.0271    6.5851 C   0  0  0  0  0  0  0  0  0  0  0  0
    2.3970    0.0170    5.8467 C   0  0  0  0  0  0  0  0  0  0  0  0
    2.3771    0.0241    4.4597 C   0  0  0  0  0  0  0  0  0  0  0  0
   -1.2320    4.3559    3.2629 H   0  0  0  0  0  0  0  0  0  0  0  0
   -2.9754    4.3067    3.6953 H   0  0  0  0  0  0  0  0  0  0  0  0
   -1.7809    3.3943    4.6763 H   0  0  0  0  0  0  0  0  0  0  0  0
   -2.6253    4.7913    1.4114 H   0  0  0  0  0  0  0  0  0  0  0  0
   -2.8691    4.6778   -3.0127 H   0  0  0  0  0  0  0  0  0  0  0  0
   -3.7160    6.2017   -2.5932 H   0  0  0  0  0  0  0  0  0  0  0  0
   -4.6038    4.6444   -2.5516 H   0  0  0  0  0  0  0  0  0  0  0  0
   -3.5346    2.5837   -2.1738 H   0  0  0  0  0  0  0  0  0  0  0  0
   -3.1448    0.4715   -0.9645 H   0  0  0  0  0  0  0  0  0  0  0  0
   -3.2715   -0.0682    2.4032 H   0  0  0  0  0  0  0  0  0  0  0  0
   -2.5480   -0.7580    0.9288 H   0  0  0  0  0  0  0  0  0  0  0  0
    1.3375   -0.1929   -0.0286 H   0  0  0  0  0  0  0  0  0  0  0  0
   -0.9695   -0.1051    6.4564 H   0  0  0  0  0  0  0  0  0  0  0  0
    1.2288   -0.0342    7.6767 H   0  0  0  0  0  0  0  0  0  0  0  0
    3.3545    0.0444    6.3730 H   0  0  0  0  0  0  0  0  0  0  0  0
    3.2951    0.0562    3.8706 H   0  0  0  0  0  0  0  0  0  0  0  0
  1 25  1  0  0  0  0
  1 26  1  0  0  0  0
  2  1  1  0  0  0  0
  3  2  1  0  0  0  0
  4 27  1  0  0  0  0
  4  3  2  0  0  0  0
  5  4  1  0  0  0  0
  6  5  1  0  0  0  0
  7  6  1  0  0  0  0
  8  5  2  0  0  0  0
  8  9  1  0  0  0  0
  9 10  2  0  0  0  0
 10  3  1  0  0  0  0
 10 11  1  0  0  0  0
 11 12  1  0  0  0  0
 11 33  1  0  0  0  0
 12 18  1  0  0  0  0
 13 15  2  0  0  0  0
 13 12  1  0  0  0  0
 14 13  1  0  0  0  0
 15 16  2  0  0  0  0
 16 23  1  0  0  0  0
 17 16  1  6  0  0  0
 17 20  1  0  0  0  0
 18 19  2  0  0  0  0
 18 17  1  0  0  0  0
 20 36  1  0  0  0  0
 20 21  2  0  0  0  0
 21 37  1  0  0  0  0
 22 38  1  0  0  0  0
 22 21  1  0  0  0  0
 23 22  2  0  0  0  0
 24  1  1  0  0  0  0
 28  7  1  0  0  0  0
 29  7  1  0  0  0  0
 30  7  1  0  0  0  0
 31  8  1  0  0  0  0
 32  9  1  0  0  0  0
 34 11  1  0  0  0  0
 35 14  1  0  0  0  0
 39 23  1  0  0  0  0
M  RAD  1  17   2
M  END
