37489147.xyz
 OpenBabel08132112123D
CC1CC(S)CC(C1)(C)C
 28 28  0  0  1  0  0  0  0  0999 V2000
   -0.9843    3.6869    2.7042 C   0  0  0  0  0  0  0  0  0  0  0  0
   -0.1088    2.5350    2.2110 C   0  0  2  0  0  0  0  0  0  0  0  0
   -0.8405    1.1919    2.3300 C   0  0  0  0  0  0  0  0  0  0  0  0
    0.0000    0.0000    1.8567 C   0  0  1  0  0  0  0  0  0  0  0  0
    0.0000    0.0000    0.0000 S   0  0  0  0  0  0  0  0  0  0  0  0
    1.3866   -0.0000    2.5160 C   0  0  0  0  0  0  0  0  0  0  0  0
    2.1657    1.3374    2.5283 C   0  0  0  0  0  0  0  0  0  0  0  0
    1.2163    2.4685    2.9807 C   0  0  0  0  0  0  0  0  0  0  0  0
    2.7823    1.6639    1.1564 C   0  0  0  0  0  0  0  0  0  0  0  0
    3.3123    1.2125    3.5450 C   0  0  0  0  0  0  0  0  0  0  0  0
   -0.4677    4.6544    2.5996 H   0  0  0  0  0  0  0  0  0  0  0  0
   -1.9282    3.7450    2.1386 H   0  0  0  0  0  0  0  0  0  0  0  0
   -1.2403    3.5593    3.7701 H   0  0  0  0  0  0  0  0  0  0  0  0
    0.1141    2.7086    1.1442 H   0  0  0  0  0  0  0  0  0  0  0  0
   -1.7985    1.2204    1.7848 H   0  0  0  0  0  0  0  0  0  0  0  0
   -1.0925    1.0232    3.3933 H   0  0  0  0  0  0  0  0  0  0  0  0
   -0.5148   -0.9277    2.1478 H   0  0  0  0  0  0  0  0  0  0  0  0
    0.8783   -1.0168   -0.1543 H   0  0  0  0  0  0  0  0  0  0  0  0
    2.0160   -0.7956    2.0827 H   0  0  0  0  0  0  0  0  0  0  0  0
    1.2153   -0.2916    3.5686 H   0  0  0  0  0  0  0  0  0  0  0  0
    1.7441    3.4351    2.9074 H   0  0  0  0  0  0  0  0  0  0  0  0
    0.9819    2.3274    4.0527 H   0  0  0  0  0  0  0  0  0  0  0  0
    3.3798    2.5882    1.2202 H   0  0  0  0  0  0  0  0  0  0  0  0
    2.0244    1.7890    0.3737 H   0  0  0  0  0  0  0  0  0  0  0  0
    3.4548    0.8528    0.8321 H   0  0  0  0  0  0  0  0  0  0  0  0
    2.9316    0.9927    4.5558 H   0  0  0  0  0  0  0  0  0  0  0  0
    4.0066    0.4045    3.2616 H   0  0  0  0  0  0  0  0  0  0  0  0
    3.8914    2.1486    3.5986 H   0  0  0  0  0  0  0  0  0  0  0  0
  1 13  1  0  0  0  0
  2 14  1  6  0  0  0
  2  3  1  0  0  0  0
  2  1  1  0  0  0  0
  2  8  1  0  0  0  0
  3 16  1  0  0  0  0
  4 17  1  1  0  0  0
  4  3  1  0  0  0  0
  4  6  1  0  0  0  0
  5  4  1  0  0  0  0
  6  7  1  0  0  0  0
  6 20  1  0  0  0  0
  7  8  1  0  0  0  0
  7 10  1  0  0  0  0
  8 22  1  0  0  0  0
  9 23  1  0  0  0  0
  9  7  1  0  0  0  0
 10 28  1  0  0  0  0
 10 26  1  0  0  0  0
 11  1  1  0  0  0  0
 12  1  1  0  0  0  0
 15  3  1  0  0  0  0
 18  5  1  0  0  0  0
 19  6  1  0  0  0  0
 21  8  1  0  0  0  0
 24  9  1  0  0  0  0
 25  9  1  0  0  0  0
 27 10  1  0  0  0  0
M  END
