37507613.xyz
 OpenBabel08132112123D
CCCc1nnc(n1Cc1ccccn1)S
 30 31  0  0  0  0  0  0  0  0999 V2000
   -0.2966   -1.4761    6.5529 C   0  0  0  0  0  0  0  0  0  0  0  0
   -0.8517   -0.0665    6.3537 C   0  0  0  0  0  0  0  0  0  0  0  0
   -1.5945    0.1213    5.0253 C   0  0  0  0  0  0  0  0  0  0  0  0
   -0.6965    0.0759    3.8288 C   0  0  0  0  0  0  0  0  0  0  0  0
    0.6152    0.0547    3.8362 N   0  0  0  0  0  0  0  0  0  0  0  0
    1.0557   -0.0000    2.5355 N   0  0  0  0  0  0  0  0  0  0  0  0
   -0.0000   -0.0000    1.7605 C   0  0  0  0  0  0  0  0  0  0  0  0
   -1.1495    0.0640    2.5281 N   0  0  0  0  0  0  0  0  0  0  0  0
   -2.5222    0.0796    2.0589 C   0  0  0  0  0  0  0  0  0  0  0  0
   -3.0905   -1.3145    1.8819 C   0  0  0  0  0  0  0  0  0  0  0  0
   -4.1488   -1.7843    2.6675 C   0  0  0  0  0  0  0  0  0  0  0  0
   -4.6087   -3.0883    2.4691 C   0  0  0  0  0  0  0  0  0  0  0  0
   -3.9942   -3.8771    1.4973 C   0  0  0  0  0  0  0  0  0  0  0  0
   -2.9451   -3.3199    0.7591 C   0  0  0  0  0  0  0  0  0  0  0  0
   -2.5086   -2.0743    0.9439 N   0  0  0  0  0  0  0  0  0  0  0  0
    0.0000    0.0000    0.0000 S   0  0  0  0  0  0  0  0  0  0  0  0
   -1.0987   -2.2326    6.5048 H   0  0  0  0  0  0  0  0  0  0  0  0
    0.4490   -1.7110    5.7800 H   0  0  0  0  0  0  0  0  0  0  0  0
    0.1919   -1.5710    7.5355 H   0  0  0  0  0  0  0  0  0  0  0  0
   -0.0287    0.6637    6.4015 H   0  0  0  0  0  0  0  0  0  0  0  0
   -1.5492    0.1816    7.1712 H   0  0  0  0  0  0  0  0  0  0  0  0
   -2.1286    1.0898    5.0320 H   0  0  0  0  0  0  0  0  0  0  0  0
   -2.3752   -0.6542    4.9215 H   0  0  0  0  0  0  0  0  0  0  0  0
   -3.1312    0.6576    2.7662 H   0  0  0  0  0  0  0  0  0  0  0  0
   -2.5304    0.6016    1.0899 H   0  0  0  0  0  0  0  0  0  0  0  0
   -4.6020   -1.1386    3.4225 H   0  0  0  0  0  0  0  0  0  0  0  0
   -5.4323   -3.4822    3.0693 H   0  0  0  0  0  0  0  0  0  0  0  0
   -4.3162   -4.9031    1.3098 H   0  0  0  0  0  0  0  0  0  0  0  0
   -2.4377   -3.9055   -0.0150 H   0  0  0  0  0  0  0  0  0  0  0  0
   -0.9252   -0.9995   -0.0799 H   0  0  0  0  0  0  0  0  0  0  0  0
  1 19  1  0  0  0  0
  2 20  1  0  0  0  0
  2  1  1  0  0  0  0
  2 21  1  0  0  0  0
  3 22  1  0  0  0  0
  3  2  1  0  0  0  0
  4  5  2  0  0  0  0
  4  3  1  0  0  0  0
  6  5  1  0  0  0  0
  7  8  1  0  0  0  0
  7  6  2  0  0  0  0
  8  4  1  0  0  0  0
  9  8  1  0  0  0  0
  9 24  1  0  0  0  0
 10  9  1  0  0  0  0
 10 11  1  0  0  0  0
 11 26  1  0  0  0  0
 12 11  2  0  0  0  0
 12 27  1  0  0  0  0
 13 12  1  0  0  0  0
 14 15  2  0  0  0  0
 14 13  1  0  0  0  0
 15 10  2  0  0  0  0
 16  7  1  0  0  0  0
 17  1  1  0  0  0  0
 18  1  1  0  0  0  0
 23  3  1  0  0  0  0
 25  9  1  0  0  0  0
 28 13  1  0  0  0  0
 29 14  1  0  0  0  0
 30 16  1  0  0  0  0
M  RAD  1  13   2
M  END
