37768961.xyz
 OpenBabel08132112123D
Cn1c(S)nnc1N1CCc2c(C1)cccc2
 31 33  0  0  0  0  0  0  0  0999 V2000
    2.5196   -0.1831    2.0070 C   0  0  0  0  0  0  0  0  0  0  0  0
    1.1688   -0.0000    2.4907 N   0  0  0  0  0  0  0  0  0  0  0  0
    0.0000   -0.0000    1.7623 C   0  0  0  0  0  0  0  0  0  0  0  0
    0.0000    0.0000    0.0000 S   0  0  0  0  0  0  0  0  0  0  0  0
   -1.0433    0.0054    2.5494 N   0  0  0  0  0  0  0  0  0  0  0  0
   -0.5768    0.0314    3.8471 N   0  0  0  0  0  0  0  0  0  0  0  0
    0.7345    0.0283    3.8061 C   0  0  0  0  0  0  0  0  0  0  0  0
    1.6160   -0.0303    4.8733 N   0  0  0  0  0  0  0  0  0  0  0  0
    1.0478   -0.4900    6.1429 C   0  0  0  0  0  0  0  0  0  0  0  0
    0.2027    0.5892    6.8234 C   0  0  0  0  0  0  0  0  0  0  0  0
    0.8794    1.9423    6.8114 C   0  0  0  0  0  0  0  0  0  0  0  0
    1.9596    2.2007    5.9490 C   0  0  0  0  0  0  0  0  0  0  0  0
    2.5250    1.1020    5.0659 C   0  0  0  0  0  0  0  0  0  0  0  0
    2.5485    3.4726    5.9324 C   0  0  0  0  0  0  0  0  0  0  0  0
    2.0784    4.4919    6.7587 C   0  0  0  0  0  0  0  0  0  0  0  0
    1.0030    4.2405    7.6171 C   0  0  0  0  0  0  0  0  0  0  0  0
    0.4136    2.9775    7.6365 C   0  0  0  0  0  0  0  0  0  0  0  0
    2.5069   -0.8351    1.1215 H   0  0  0  0  0  0  0  0  0  0  0  0
    2.9963    0.7727    1.7353 H   0  0  0  0  0  0  0  0  0  0  0  0
    3.1081   -0.6678    2.7983 H   0  0  0  0  0  0  0  0  0  0  0  0
   -1.3438   -0.1350   -0.0556 H   0  0  0  0  0  0  0  0  0  0  0  0
    1.8964   -0.7781    6.7869 H   0  0  0  0  0  0  0  0  0  0  0  0
    0.4457   -1.3883    5.9520 H   0  0  0  0  0  0  0  0  0  0  0  0
   -0.0250    0.2902    7.8599 H   0  0  0  0  0  0  0  0  0  0  0  0
   -0.7558    0.6628    6.2848 H   0  0  0  0  0  0  0  0  0  0  0  0
    3.4597    0.7173    5.5144 H   0  0  0  0  0  0  0  0  0  0  0  0
    2.8014    1.5215    4.0886 H   0  0  0  0  0  0  0  0  0  0  0  0
    3.3878    3.6649    5.2566 H   0  0  0  0  0  0  0  0  0  0  0  0
    2.5443    5.4798    6.7313 H   0  0  0  0  0  0  0  0  0  0  0  0
    0.6234    5.0309    8.2692 H   0  0  0  0  0  0  0  0  0  0  0  0
   -0.4299    2.7812    8.3045 H   0  0  0  0  0  0  0  0  0  0  0  0
  1  2  1  0  0  0  0
  1 20  1  0  0  0  0
  2  7  1  0  0  0  0
  3  2  1  0  0  0  0
  3  5  2  0  0  0  0
  4  3  1  0  0  0  0
  5  6  1  0  0  0  0
  7  6  2  0  0  0  0
  7  8  1  0  0  0  0
  8 13  1  0  0  0  0
  8  9  1  0  0  0  0
  9 22  1  0  0  0  0
  9 10  1  0  0  0  0
 10 24  1  0  0  0  0
 11 10  1  0  0  0  0
 11 17  2  0  0  0  0
 12 11  1  0  0  0  0
 13 26  1  0  0  0  0
 13 12  1  0  0  0  0
 14 12  2  0  0  0  0
 14 15  1  0  0  0  0
 15 16  2  0  0  0  0
 16 17  1  0  0  0  0
 16 30  1  0  0  0  0
 17 31  1  0  0  0  0
 18  1  1  0  0  0  0
 19  1  1  0  0  0  0
 21  4  1  0  0  0  0
 23  9  1  0  0  0  0
 25 10  1  0  0  0  0
 27 13  1  0  0  0  0
 28 14  1  0  0  0  0
 29 15  1  0  0  0  0
M  END
