37778900.xyz
 OpenBabel08132112123D
CCCCn1c(S)nc2c1ccc(c2)Cl
 28 29  0  0  0  0  0  0  0  0999 V2000
   -4.5874   -1.1041   -0.2631 C   0  0  0  0  0  0  0  0  0  0  0  0
   -4.4402   -1.6295    1.1665 C   0  0  0  0  0  0  0  0  0  0  0  0
   -3.0206   -1.5271    1.7329 C   0  0  0  0  0  0  0  0  0  0  0  0
   -2.5327   -0.0858    1.9033 C   0  0  0  0  0  0  0  0  0  0  0  0
   -1.1938   -0.0047    2.4576 N   0  0  0  0  0  0  0  0  0  0  0  0
    0.0000    0.0000    1.7629 C   0  0  0  0  0  0  0  0  0  0  0  0
    0.0000    0.0000    0.0000 S   0  0  0  0  0  0  0  0  0  0  0  0
    1.0631    0.0000    2.5275 N   0  0  0  0  0  0  0  0  0  0  0  0
    0.5718   -0.0176    3.8223 C   0  0  0  0  0  0  0  0  0  0  0  0
   -0.8484   -0.0318    3.8028 C   0  0  0  0  0  0  0  0  0  0  0  0
   -1.6098   -0.0589    4.9721 C   0  0  0  0  0  0  0  0  0  0  0  0
   -0.9192   -0.0660    6.1850 C   0  0  0  0  0  0  0  0  0  0  0  0
    0.4894   -0.0475    6.2075 C   0  0  0  0  0  0  0  0  0  0  0  0
    1.2570   -0.0229    5.0444 C   0  0  0  0  0  0  0  0  0  0  0  0
    1.2985   -0.0583    7.7628 Cl  0  0  0  0  0  0  0  0  0  0  0  0
   -4.3898   -0.0223   -0.3322 H   0  0  0  0  0  0  0  0  0  0  0  0
   -5.6064   -1.2716   -0.6448 H   0  0  0  0  0  0  0  0  0  0  0  0
   -3.8865   -1.6122   -0.9461 H   0  0  0  0  0  0  0  0  0  0  0  0
   -4.7489   -2.6877    1.1972 H   0  0  0  0  0  0  0  0  0  0  0  0
   -5.1396   -1.0936    1.8340 H   0  0  0  0  0  0  0  0  0  0  0  0
   -2.9711   -2.0278    2.7140 H   0  0  0  0  0  0  0  0  0  0  0  0
   -2.3136   -2.0598    1.0736 H   0  0  0  0  0  0  0  0  0  0  0  0
   -2.5290    0.4477    0.9408 H   0  0  0  0  0  0  0  0  0  0  0  0
   -3.2088    0.4756    2.5681 H   0  0  0  0  0  0  0  0  0  0  0  0
    1.3482    0.0634   -0.0585 H   0  0  0  0  0  0  0  0  0  0  0  0
   -2.7011   -0.0770    4.9545 H   0  0  0  0  0  0  0  0  0  0  0  0
   -1.4633   -0.0879    7.1298 H   0  0  0  0  0  0  0  0  0  0  0  0
    2.3459   -0.0096    5.0805 H   0  0  0  0  0  0  0  0  0  0  0  0
  1  2  1  0  0  0  0
  2 19  1  0  0  0  0
  2  3  1  0  0  0  0
  2 20  1  0  0  0  0
  3  4  1  0  0  0  0
  3 21  1  0  0  0  0
  4  5  1  0  0  0  0
  4 24  1  0  0  0  0
  5 10  1  0  0  0  0
  6  5  1  0  0  0  0
  6  8  2  0  0  0  0
  7  6  1  0  0  0  0
  8  9  2  0  0  0  0
  9 14  1  0  0  0  0
 10  9  1  0  0  0  0
 10 11  2  0  0  0  0
 11 12  1  0  0  0  0
 12 13  1  0  0  0  0
 12 27  1  0  0  0  0
 13 15  1  0  0  0  0
 14 28  1  0  0  0  0
 14 13  2  0  0  0  0
 16  1  1  0  0  0  0
 17  1  1  0  0  0  0
 18  1  1  0  0  0  0
 22  3  1  0  0  0  0
 23  4  1  0  0  0  0
 25  7  1  0  0  0  0
 26 11  1  0  0  0  0
M  RAD  1  12   2
M  END
