3789977.xyz
 OpenBabel08132112123D
COc1ccccc1n1c(S)nnc1c1ccc(cc1)C
 36 38  0  0  0  0  0  0  0  0999 V2000
    2.5862   -3.5175    0.9645 C   0  0  0  0  0  0  0  0  0  0  0  0
    2.1854   -2.2886    1.5317 O   0  0  0  0  0  0  0  0  0  0  0  0
    2.9911   -1.2151    1.4209 C   0  0  0  0  0  0  0  0  0  0  0  0
    4.2771   -1.2242    0.8630 C   0  0  0  0  0  0  0  0  0  0  0  0
    5.0308   -0.0463    0.8304 C   0  0  0  0  0  0  0  0  0  0  0  0
    4.5210    1.1492    1.3391 C   0  0  0  0  0  0  0  0  0  0  0  0
    3.2353    1.1661    1.8849 C   0  0  0  0  0  0  0  0  0  0  0  0
    2.4777   -0.0019    1.9310 C   0  0  0  0  0  0  0  0  0  0  0  0
    1.1682    0.0000    2.4842 N   0  0  0  0  0  0  0  0  0  0  0  0
    0.0000    0.0000    1.7578 C   0  0  0  0  0  0  0  0  0  0  0  0
    0.0000    0.0000    0.0000 S   0  0  0  0  0  0  0  0  0  0  0  0
   -1.0411    0.0192    2.5530 N   0  0  0  0  0  0  0  0  0  0  0  0
   -0.5696    0.0214    3.8374 N   0  0  0  0  0  0  0  0  0  0  0  0
    0.7462    0.0026    3.8101 C   0  0  0  0  0  0  0  0  0  0  0  0
    1.5994    0.0041    5.0029 C   0  0  0  0  0  0  0  0  0  0  0  0
    2.9363   -0.4242    5.0090 C   0  0  0  0  0  0  0  0  0  0  0  0
    3.6782   -0.4126    6.1921 C   0  0  0  0  0  0  0  0  0  0  0  0
    3.1188    0.0161    7.4019 C   0  0  0  0  0  0  0  0  0  0  0  0
    1.7751    0.4304    7.3910 C   0  0  0  0  0  0  0  0  0  0  0  0
    1.0276    0.4268    6.2196 C   0  0  0  0  0  0  0  0  0  0  0  0
    3.9203    0.0404    8.6776 C   0  0  0  0  0  0  0  0  0  0  0  0
    1.7654   -4.2230    1.1444 H   0  0  0  0  0  0  0  0  0  0  0  0
    2.7524   -3.4235   -0.1227 H   0  0  0  0  0  0  0  0  0  0  0  0
    3.5053   -3.9040    1.4389 H   0  0  0  0  0  0  0  0  0  0  0  0
    4.6973   -2.1451    0.4601 H   0  0  0  0  0  0  0  0  0  0  0  0
    6.0331   -0.0710    0.3963 H   0  0  0  0  0  0  0  0  0  0  0  0
    5.1156    2.0638    1.3077 H   0  0  0  0  0  0  0  0  0  0  0  0
    2.8029    2.0828    2.2893 H   0  0  0  0  0  0  0  0  0  0  0  0
   -1.3508    0.0396   -0.0486 H   0  0  0  0  0  0  0  0  0  0  0  0
    3.4075   -0.7840    4.0962 H   0  0  0  0  0  0  0  0  0  0  0  0
    4.7171   -0.7526    6.1716 H   0  0  0  0  0  0  0  0  0  0  0  0
    1.3090    0.7645    8.3223 H   0  0  0  0  0  0  0  0  0  0  0  0
   -0.0155    0.7456    6.2180 H   0  0  0  0  0  0  0  0  0  0  0  0
    4.0499    1.0720    9.0465 H   0  0  0  0  0  0  0  0  0  0  0  0
    3.4149   -0.5246    9.4780 H   0  0  0  0  0  0  0  0  0  0  0  0
    4.9210   -0.3932    8.5356 H   0  0  0  0  0  0  0  0  0  0  0  0
  1 22  1  0  0  0  0
  1 24  1  0  0  0  0
  1  2  1  0  0  0  0
  3  2  1  0  0  0  0
  3  8  2  0  0  0  0
  4  3  1  0  0  0  0
  5  4  2  0  0  0  0
  5  6  1  0  0  0  0
  6  7  2  0  0  0  0
  7  8  1  0  0  0  0
  7 28  1  0  0  0  0
  8  9  1  0  0  0  0
  9 14  1  0  0  0  0
 10  9  1  0  0  0  0
 10 12  2  0  0  0  0
 11 10  1  0  0  0  0
 12 13  1  0  0  0  0
 14 13  2  0  0  0  0
 14 15  1  0  0  0  0
 15 16  2  0  0  0  0
 15 20  1  0  0  0  0
 16 17  1  0  0  0  0
 17 18  2  0  0  0  0
 18 21  1  0  0  0  0
 19 18  1  0  0  0  0
 19 32  1  0  0  0  0
 20 19  2  0  0  0  0
 21 34  1  0  0  0  0
 21 35  1  0  0  0  0
 23  1  1  0  0  0  0
 25  4  1  0  0  0  0
 26  5  1  0  0  0  0
 27  6  1  0  0  0  0
 29 11  1  0  0  0  0
 30 16  1  0  0  0  0
 31 17  1  0  0  0  0
 33 20  1  0  0  0  0
 36 21  1  0  0  0  0
M  END
