37895025.xyz
 OpenBabel08132112123D
CCCc1nnc(n1CC1CCN(C1)C)S
 36 37  0  0  1  0  0  0  0  0999 V2000
    1.0724    2.5498    5.5577 C   0  0  0  0  0  0  0  0  0  0  0  0
    2.1564    1.5119    5.2751 C   0  0  0  0  0  0  0  0  0  0  0  0
    1.5979    0.0983    5.0165 C   0  0  0  0  0  0  0  0  0  0  0  0
    0.7145    0.0116    3.8162 C   0  0  0  0  0  0  0  0  0  0  0  0
   -0.5973    0.0292    3.8373 N   0  0  0  0  0  0  0  0  0  0  0  0
   -1.0537    0.0178    2.5404 N   0  0  0  0  0  0  0  0  0  0  0  0
   -0.0000   -0.0000    1.7623 C   0  0  0  0  0  0  0  0  0  0  0  0
    1.1570   -0.0000    2.5034 N   0  0  0  0  0  0  0  0  0  0  0  0
    2.5181   -0.0891    1.9930 C   0  0  0  0  0  0  0  0  0  0  0  0
    2.8755   -1.4803    1.4739 C   0  0  1  0  0  0  0  0  0  0  0  0
    4.3315   -1.5764    0.9412 C   0  0  0  0  0  0  0  0  0  0  0  0
    4.8910   -2.8651    1.5763 C   0  0  0  0  0  0  0  0  0  0  0  0
    3.7093   -3.5964    2.0054 N   0  0  0  0  0  0  0  0  0  0  0  0
    2.8043   -2.5937    2.5286 C   0  0  0  0  0  0  0  0  0  0  0  0
    3.9603   -4.7229    2.8688 C   0  0  0  0  0  0  0  0  0  0  0  0
    0.0000    0.0000    0.0000 S   0  0  0  0  0  0  0  0  0  0  0  0
    0.4919    2.2793    6.4544 H   0  0  0  0  0  0  0  0  0  0  0  0
    0.3585    2.6236    4.7231 H   0  0  0  0  0  0  0  0  0  0  0  0
    1.5105    3.5462    5.7247 H   0  0  0  0  0  0  0  0  0  0  0  0
    2.8546    1.4548    6.1276 H   0  0  0  0  0  0  0  0  0  0  0  0
    2.7623    1.8328    4.4091 H   0  0  0  0  0  0  0  0  0  0  0  0
    2.4272   -0.6226    4.9332 H   0  0  0  0  0  0  0  0  0  0  0  0
    0.9838   -0.2175    5.8731 H   0  0  0  0  0  0  0  0  0  0  0  0
    2.6340    0.6572    1.1901 H   0  0  0  0  0  0  0  0  0  0  0  0
    3.2008    0.2026    2.8032 H   0  0  0  0  0  0  0  0  0  0  0  0
    2.1807   -1.7393    0.6611 H   0  0  0  0  0  0  0  0  0  0  0  0
    4.9318   -0.6996    1.2315 H   0  0  0  0  0  0  0  0  0  0  0  0
    4.3415   -1.6263   -0.1568 H   0  0  0  0  0  0  0  0  0  0  0  0
    5.4970   -3.4683    0.8813 H   0  0  0  0  0  0  0  0  0  0  0  0
    5.5454   -2.6097    2.4432 H   0  0  0  0  0  0  0  0  0  0  0  0
    1.7898   -2.9982    2.6687 H   0  0  0  0  0  0  0  0  0  0  0  0
    3.1462   -2.2059    3.5204 H   0  0  0  0  0  0  0  0  0  0  0  0
    4.4458   -4.4340    3.8311 H   0  0  0  0  0  0  0  0  0  0  0  0
    4.6196   -5.4475    2.3652 H   0  0  0  0  0  0  0  0  0  0  0  0
    3.0158   -5.2361    3.1087 H   0  0  0  0  0  0  0  0  0  0  0  0
   -1.3447    0.1302   -0.0532 H   0  0  0  0  0  0  0  0  0  0  0  0
  1 19  1  0  0  0  0
  1 17  1  0  0  0  0
  2  1  1  0  0  0  0
  2 20  1  0  0  0  0
  3  2  1  0  0  0  0
  3 23  1  0  0  0  0
  4  5  2  0  0  0  0
  4  3  1  0  0  0  0
  6  5  1  0  0  0  0
  7  8  1  0  0  0  0
  7  6  2  0  0  0  0
  8  4  1  0  0  0  0
  9  8  1  0  0  0  0
  9 25  1  0  0  0  0
 10 26  1  6  0  0  0
 10  9  1  0  0  0  0
 10 14  1  0  0  0  0
 11 27  1  0  0  0  0
 11 10  1  0  0  0  0
 11 12  1  0  0  0  0
 12 13  1  0  0  0  0
 12 30  1  0  0  0  0
 13 14  1  0  0  0  0
 13 15  1  0  0  0  0
 14 31  1  0  0  0  0
 14 32  1  0  0  0  0
 15 35  1  0  0  0  0
 15 33  1  0  0  0  0
 16  7  1  0  0  0  0
 18  1  1  0  0  0  0
 21  2  1  0  0  0  0
 22  3  1  0  0  0  0
 24  9  1  0  0  0  0
 28 11  1  0  0  0  0
 29 12  1  0  0  0  0
 34 15  1  0  0  0  0
 36 16  1  0  0  0  0
M  END
