3802923.xyz
 OpenBabel08132112123D
CC(n1c(S)nnc1C1CC1)C
 25 26  0  0  0  0  0  0  0  0999 V2000
   -2.8673    1.3437    1.4305 C   0  0  0  0  0  0  0  0  0  0  0  0
   -2.5436    0.0381    2.1598 C   0  0  0  0  0  0  0  0  0  0  0  0
   -1.1283   -0.0141    2.5512 N   0  0  0  0  0  0  0  0  0  0  0  0
    0.0000   -0.0000    1.7645 C   0  0  0  0  0  0  0  0  0  0  0  0
    0.0000    0.0000    0.0000 S   0  0  0  0  0  0  0  0  0  0  0  0
    1.0826   -0.0000    2.5057 N   0  0  0  0  0  0  0  0  0  0  0  0
    0.6811   -0.0206    3.8167 N   0  0  0  0  0  0  0  0  0  0  0  0
   -0.6301   -0.0309    3.8436 C   0  0  0  0  0  0  0  0  0  0  0  0
   -1.4732   -0.0017    5.0556 C   0  0  0  0  0  0  0  0  0  0  0  0
   -0.8059    0.2835    6.3738 C   0  0  0  0  0  0  0  0  0  0  0  0
   -1.7059    1.3221    5.7701 C   0  0  0  0  0  0  0  0  0  0  0  0
   -2.9525   -1.2137    1.3814 C   0  0  0  0  0  0  0  0  0  0  0  0
   -3.9478    1.4022    1.2294 H   0  0  0  0  0  0  0  0  0  0  0  0
   -2.3371    1.4145    0.4691 H   0  0  0  0  0  0  0  0  0  0  0  0
   -2.5803    2.2104    2.0443 H   0  0  0  0  0  0  0  0  0  0  0  0
   -3.0932    0.0434    3.1115 H   0  0  0  0  0  0  0  0  0  0  0  0
    1.3522    0.0002   -0.0402 H   0  0  0  0  0  0  0  0  0  0  0  0
   -2.3062   -0.7123    5.0654 H   0  0  0  0  0  0  0  0  0  0  0  0
   -1.1615   -0.2693    7.2464 H   0  0  0  0  0  0  0  0  0  0  0  0
    0.2722    0.4508    6.3345 H   0  0  0  0  0  0  0  0  0  0  0  0
   -1.2406    2.2092    5.3324 H   0  0  0  0  0  0  0  0  0  0  0  0
   -2.6901    1.4917    6.2155 H   0  0  0  0  0  0  0  0  0  0  0  0
   -4.0337   -1.1925    1.1771 H   0  0  0  0  0  0  0  0  0  0  0  0
   -2.7248   -2.1221    1.9588 H   0  0  0  0  0  0  0  0  0  0  0  0
   -2.4254   -1.2822    0.4179 H   0  0  0  0  0  0  0  0  0  0  0  0
  1 15  1  0  0  0  0
  1  2  1  0  0  0  0
  2  3  1  0  0  0  0
  2 16  1  0  0  0  0
  3  8  1  0  0  0  0
  4  6  2  0  0  0  0
  4  3  1  0  0  0  0
  5  4  1  0  0  0  0
  6  7  1  0  0  0  0
  7  8  2  0  0  0  0
  8  9  1  0  0  0  0
  9 18  1  0  0  0  0
  9 11  1  0  0  0  0
  9 10  1  0  0  0  0
 10 19  1  0  0  0  0
 11 22  1  0  0  0  0
 11 10  1  0  0  0  0
 12 24  1  0  0  0  0
 12  2  1  0  0  0  0
 13  1  1  0  0  0  0
 14  1  1  0  0  0  0
 17  5  1  0  0  0  0
 20 10  1  0  0  0  0
 21 11  1  0  0  0  0
 23 12  1  0  0  0  0
 25 12  1  0  0  0  0
M  END
