3802941.xyz
 OpenBabel08132112123D
CCOc1ccc(cc1)c1nnc(n1CC)S
 32 33  0  0  0  0  0  0  0  0999 V2000
    5.3959   -0.0424   10.2081 C   0  0  0  0  0  0  0  0  0  0  0  0
    4.9329   -0.3288    8.7943 C   0  0  0  0  0  0  0  0  0  0  0  0
    3.6575    0.2677    8.6218 O   0  0  0  0  0  0  0  0  0  0  0  0
    3.0236    0.1572    7.4322 C   0  0  0  0  0  0  0  0  0  0  0  0
    3.5383   -0.5183    6.3166 C   0  0  0  0  0  0  0  0  0  0  0  0
    2.7980   -0.5690    5.1314 C   0  0  0  0  0  0  0  0  0  0  0  0
    1.5468    0.0541    5.0231 C   0  0  0  0  0  0  0  0  0  0  0  0
    1.0365    0.7169    6.1602 C   0  0  0  0  0  0  0  0  0  0  0  0
    1.7590    0.7684    7.3412 C   0  0  0  0  0  0  0  0  0  0  0  0
    0.7132    0.0136    3.8170 C   0  0  0  0  0  0  0  0  0  0  0  0
   -0.6041    0.0300    3.8308 N   0  0  0  0  0  0  0  0  0  0  0  0
   -1.0556    0.0171    2.5394 N   0  0  0  0  0  0  0  0  0  0  0  0
   -0.0000    0.0000    1.7620 C   0  0  0  0  0  0  0  0  0  0  0  0
    1.1575    0.0000    2.5010 N   0  0  0  0  0  0  0  0  0  0  0  0
    2.5097    0.0891    1.9640 C   0  0  0  0  0  0  0  0  0  0  0  0
    3.0566   -1.2527    1.4843 C   0  0  0  0  0  0  0  0  0  0  0  0
    0.0000    0.0000    0.0000 S   0  0  0  0  0  0  0  0  0  0  0  0
    6.3859   -0.4904   10.3834 H   0  0  0  0  0  0  0  0  0  0  0  0
    4.6877   -0.4610   10.9391 H   0  0  0  0  0  0  0  0  0  0  0  0
    5.4669    1.0423   10.3797 H   0  0  0  0  0  0  0  0  0  0  0  0
    5.6445    0.0846    8.0548 H   0  0  0  0  0  0  0  0  0  0  0  0
    4.8659   -1.4184    8.6147 H   0  0  0  0  0  0  0  0  0  0  0  0
    4.5037   -1.0209    6.3593 H   0  0  0  0  0  0  0  0  0  0  0  0
    3.2049   -1.1396    4.2967 H   0  0  0  0  0  0  0  0  0  0  0  0
    0.0541    1.1858    6.0897 H   0  0  0  0  0  0  0  0  0  0  0  0
    1.3700    1.2830    8.2217 H   0  0  0  0  0  0  0  0  0  0  0  0
    2.4862    0.8105    1.1313 H   0  0  0  0  0  0  0  0  0  0  0  0
    3.1469    0.5253    2.7449 H   0  0  0  0  0  0  0  0  0  0  0  0
    4.0741   -1.1259    1.0837 H   0  0  0  0  0  0  0  0  0  0  0  0
    2.4243   -1.6728    0.6878 H   0  0  0  0  0  0  0  0  0  0  0  0
    3.0955   -1.9857    2.3044 H   0  0  0  0  0  0  0  0  0  0  0  0
   -1.3436    0.1404   -0.0529 H   0  0  0  0  0  0  0  0  0  0  0  0
  1 20  1  0  0  0  0
  1 18  1  0  0  0  0
  1 19  1  0  0  0  0
  2  1  1  0  0  0  0
  3  2  1  0  0  0  0
  4  3  1  0  0  0  0
  5 23  1  0  0  0  0
  5  4  2  0  0  0  0
  6  5  1  0  0  0  0
  7  6  2  0  0  0  0
  7  8  1  0  0  0  0
  8  9  2  0  0  0  0
  9  4  1  0  0  0  0
  9 26  1  0  0  0  0
 10 11  2  0  0  0  0
 10  7  1  0  0  0  0
 12 11  1  0  0  0  0
 13 14  1  0  0  0  0
 13 12  2  0  0  0  0
 14 10  1  0  0  0  0
 15 14  1  0  0  0  0
 15 28  1  0  0  0  0
 16 15  1  0  0  0  0
 16 31  1  0  0  0  0
 17 13  1  0  0  0  0
 21  2  1  0  0  0  0
 22  2  1  0  0  0  0
 24  6  1  0  0  0  0
 25  8  1  0  0  0  0
 27 15  1  0  0  0  0
 29 16  1  0  0  0  0
 30 16  1  0  0  0  0
 32 17  1  0  0  0  0
M  END
