38062686.xyz
 OpenBabel08132112123D
Sc1nnc(n1c1cccc(c1F)F)C1CC1
 26 28  0  0  0  0  0  0  0  0999 V2000
    0.0000    0.0000    0.0000 S   0  0  0  0  0  0  0  0  0  0  0  0
   -0.0000   -0.0000    1.7603 C   0  0  0  0  0  0  0  0  0  0  0  0
    1.0385   -0.0000    2.5524 N   0  0  0  0  0  0  0  0  0  0  0  0
    0.5707   -0.0012    3.8482 N   0  0  0  0  0  0  0  0  0  0  0  0
   -0.7368   -0.0116    3.8200 C   0  0  0  0  0  0  0  0  0  0  0  0
   -1.1688   -0.0096    2.4982 N   0  0  0  0  0  0  0  0  0  0  0  0
   -2.4965   -0.0551    2.0112 C   0  0  0  0  0  0  0  0  0  0  0  0
   -3.0268    0.9934    1.2484 C   0  0  0  0  0  0  0  0  0  0  0  0
   -4.3340    0.9153    0.7686 C   0  0  0  0  0  0  0  0  0  0  0  0
   -5.1289   -0.1979    1.0570 C   0  0  0  0  0  0  0  0  0  0  0  0
   -4.6021   -1.2347    1.8199 C   0  0  0  0  0  0  0  0  0  0  0  0
   -3.2870   -1.1766    2.2898 C   0  0  0  0  0  0  0  0  0  0  0  0
   -2.7961   -2.1896    2.9981 F   0  0  0  0  0  0  0  0  0  0  0  0
   -5.3364   -2.3096    2.1061 F   0  0  0  0  0  0  0  0  0  0  0  0
   -1.6523   -0.0524    4.9726 C   0  0  0  0  0  0  0  0  0  0  0  0
   -1.0624   -0.0337    6.3598 C   0  0  0  0  0  0  0  0  0  0  0  0
   -1.6861   -1.2959    5.8462 C   0  0  0  0  0  0  0  0  0  0  0  0
    1.3512   -0.0295   -0.0466 H   0  0  0  0  0  0  0  0  0  0  0  0
   -2.3985    1.8598    1.0392 H   0  0  0  0  0  0  0  0  0  0  0  0
   -4.7435    1.7315    0.1712 H   0  0  0  0  0  0  0  0  0  0  0  0
   -6.1573   -0.2813    0.7018 H   0  0  0  0  0  0  0  0  0  0  0  0
   -2.6057    0.4605    4.8140 H   0  0  0  0  0  0  0  0  0  0  0  0
   -1.5928    0.5415    7.1226 H   0  0  0  0  0  0  0  0  0  0  0  0
    0.0276    0.0129    6.4112 H   0  0  0  0  0  0  0  0  0  0  0  0
   -2.6589   -1.6064    6.2365 H   0  0  0  0  0  0  0  0  0  0  0  0
   -1.0245   -2.1153    5.5550 H   0  0  0  0  0  0  0  0  0  0  0  0
  1  2  1  0  0  0  0
  2  6  1  0  0  0  0
  2  3  2  0  0  0  0
  3  4  1  0  0  0  0
  5  4  2  0  0  0  0
  5 15  1  0  0  0  0
  6  5  1  0  0  0  0
  7 12  1  0  0  0  0
  7  6  1  0  0  0  0
  8  7  2  0  0  0  0
  9 10  2  0  0  0  0
  9  8  1  0  0  0  0
 10 11  1  0  0  0  0
 11 14  1  0  0  0  0
 11 12  2  0  0  0  0
 12 13  1  0  0  0  0
 15 17  1  0  0  0  0
 15 16  1  0  0  0  0
 16 24  1  0  0  0  0
 16 23  1  0  0  0  0
 17 25  1  0  0  0  0
 17 16  1  0  0  0  0
 18  1  1  0  0  0  0
 19  8  1  0  0  0  0
 20  9  1  0  0  0  0
 21 10  1  0  0  0  0
 22 15  1  0  0  0  0
 26 17  1  0  0  0  0
M  END
