38336494.xyz
 OpenBabel08132112123D
CCc1nnc(n1C(C(C)C)CN(C)C)S
 38 38  0  0  1  0  0  0  0  0999 V2000
    0.7025    0.3113    6.3145 C   0  0  0  0  0  0  0  0  0  0  0  0
    1.5266   -0.0381    5.0751 C   0  0  0  0  0  0  0  0  0  0  0  0
    0.7035    0.0000    3.8213 C   0  0  0  0  0  0  0  0  0  0  0  0
   -0.6084   -0.0099    3.8270 N   0  0  0  0  0  0  0  0  0  0  0  0
   -1.0592   -0.0084    2.5311 N   0  0  0  0  0  0  0  0  0  0  0  0
   -0.0000    0.0000    1.7640 C   0  0  0  0  0  0  0  0  0  0  0  0
    1.1593   -0.0000    2.5063 N   0  0  0  0  0  0  0  0  0  0  0  0
    2.4971    0.0896    1.8958 C   0  0  1  0  0  0  0  0  0  0  0  0
    2.8897    1.5709    1.6591 C   0  0  0  0  0  0  0  0  0  0  0  0
    3.1723    2.3531    2.9434 C   0  0  0  0  0  0  0  0  0  0  0  0
    4.0458    1.6873    0.6609 C   0  0  0  0  0  0  0  0  0  0  0  0
    3.5672   -0.7702    2.5797 C   0  0  0  0  0  0  0  0  0  0  0  0
    3.5515   -2.1617    2.1546 N   0  0  0  0  0  0  0  0  0  0  0  0
    2.3599   -2.9005    2.5337 C   0  0  0  0  0  0  0  0  0  0  0  0
    4.7610   -2.8508    2.5574 C   0  0  0  0  0  0  0  0  0  0  0  0
    0.0000    0.0000    0.0000 S   0  0  0  0  0  0  0  0  0  0  0  0
    0.2973    1.3316    6.2436 H   0  0  0  0  0  0  0  0  0  0  0  0
    1.3265    0.2425    7.2184 H   0  0  0  0  0  0  0  0  0  0  0  0
   -0.1538   -0.3686    6.4182 H   0  0  0  0  0  0  0  0  0  0  0  0
    1.9581   -1.0477    5.1908 H   0  0  0  0  0  0  0  0  0  0  0  0
    2.3843    0.6443    4.9855 H   0  0  0  0  0  0  0  0  0  0  0  0
    2.3831   -0.3656    0.8995 H   0  0  0  0  0  0  0  0  0  0  0  0
    2.0042    2.0232    1.1805 H   0  0  0  0  0  0  0  0  0  0  0  0
    4.0264    1.9315    3.4984 H   0  0  0  0  0  0  0  0  0  0  0  0
    2.2987    2.3686    3.6109 H   0  0  0  0  0  0  0  0  0  0  0  0
    3.4207    3.3990    2.7053 H   0  0  0  0  0  0  0  0  0  0  0  0
    3.8451    1.1139   -0.2579 H   0  0  0  0  0  0  0  0  0  0  0  0
    4.9971    1.3262    1.0838 H   0  0  0  0  0  0  0  0  0  0  0  0
    4.1975    2.7393    0.3746 H   0  0  0  0  0  0  0  0  0  0  0  0
    3.5238   -0.6659    3.6814 H   0  0  0  0  0  0  0  0  0  0  0  0
    4.5419   -0.3592    2.2813 H   0  0  0  0  0  0  0  0  0  0  0  0
    2.4315   -3.9285    2.1472 H   0  0  0  0  0  0  0  0  0  0  0  0
    2.2149   -2.9656    3.6362 H   0  0  0  0  0  0  0  0  0  0  0  0
    1.4580   -2.4489    2.1009 H   0  0  0  0  0  0  0  0  0  0  0  0
    4.7689   -3.8704    2.1421 H   0  0  0  0  0  0  0  0  0  0  0  0
    4.8726   -2.9376    3.6637 H   0  0  0  0  0  0  0  0  0  0  0  0
    5.6474   -2.3215    2.1730 H   0  0  0  0  0  0  0  0  0  0  0  0
   -1.3501   -0.0581   -0.0467 H   0  0  0  0  0  0  0  0  0  0  0  0
  1 19  1  0  0  0  0
  1 18  1  0  0  0  0
  2 20  1  0  0  0  0
  2  1  1  0  0  0  0
  3  4  2  0  0  0  0
  3  2  1  0  0  0  0
  5  4  1  0  0  0  0
  6  7  1  0  0  0  0
  6  5  2  0  0  0  0
  7  3  1  0  0  0  0
  8 22  1  6  0  0  0
  8  7  1  0  0  0  0
  8 12  1  0  0  0  0
  9  8  1  0  0  0  0
  9 10  1  0  0  0  0
 10 24  1  0  0  0  0
 10 25  1  0  0  0  0
 11 28  1  0  0  0  0
 11  9  1  0  0  0  0
 12 30  1  0  0  0  0
 13 14  1  0  0  0  0
 13 15  1  0  0  0  0
 13 12  1  0  0  0  0
 14 33  1  0  0  0  0
 15 36  1  0  0  0  0
 16  6  1  0  0  0  0
 17  1  1  0  0  0  0
 21  2  1  0  0  0  0
 23  9  1  0  0  0  0
 26 10  1  0  0  0  0
 27 11  1  0  0  0  0
 29 11  1  0  0  0  0
 31 12  1  0  0  0  0
 32 14  1  0  0  0  0
 34 14  1  0  0  0  0
 35 15  1  0  0  0  0
 37 15  1  0  0  0  0
 38 16  1  0  0  0  0
M  END
