38353919.xyz
 OpenBabel08132112123D
Brc1ccc(cc1)C(n1nnnc1S)C
 24 25  0  0  1  0  0  0  0  0999 V2000
   -3.9219    5.8139    0.0727 Br  0  0  0  0  0  0  0  0  0  0  0  0
   -3.4855    4.0616    0.6749 C   0  0  0  0  0  0  0  0  0  0  0  0
   -3.8689    2.9561   -0.0867 C   0  0  0  0  0  0  0  0  0  0  0  0
   -3.5380    1.6748    0.3604 C   0  0  0  0  0  0  0  0  0  0  0  0
   -2.8377    1.4904    1.5568 C   0  0  0  0  0  0  0  0  0  0  0  0
   -2.4607    2.6131    2.3060 C   0  0  0  0  0  0  0  0  0  0  0  0
   -2.7795    3.8991    1.8709 C   0  0  0  0  0  0  0  0  0  0  0  0
   -2.5212    0.0896    2.0537 C   0  0  1  0  0  0  0  0  0  0  0  0
   -1.1270    0.0105    2.4980 N   0  0  0  0  0  0  0  0  0  0  0  0
   -0.7529    0.0386    3.7985 N   0  0  0  0  0  0  0  0  0  0  0  0
    0.5324    0.0235    3.8141 N   0  0  0  0  0  0  0  0  0  0  0  0
    1.0421    0.0000    2.5614 N   0  0  0  0  0  0  0  0  0  0  0  0
   -0.0000   -0.0000    1.7497 C   0  0  0  0  0  0  0  0  0  0  0  0
    0.0000    0.0000    0.0000 S   0  0  0  0  0  0  0  0  0  0  0  0
   -3.4679   -0.3715    3.1615 C   0  0  0  0  0  0  0  0  0  0  0  0
   -4.4123    3.0952   -1.0220 H   0  0  0  0  0  0  0  0  0  0  0  0
   -3.8282    0.8078   -0.2394 H   0  0  0  0  0  0  0  0  0  0  0  0
   -1.9032    2.4830    3.2369 H   0  0  0  0  0  0  0  0  0  0  0  0
   -2.4807    4.7713    2.4538 H   0  0  0  0  0  0  0  0  0  0  0  0
   -2.6021   -0.6070    1.2032 H   0  0  0  0  0  0  0  0  0  0  0  0
    1.3362   -0.1994   -0.0661 H   0  0  0  0  0  0  0  0  0  0  0  0
   -3.4158    0.3033    4.0258 H   0  0  0  0  0  0  0  0  0  0  0  0
   -3.2133   -1.3866    3.4987 H   0  0  0  0  0  0  0  0  0  0  0  0
   -4.4957   -0.3674    2.7722 H   0  0  0  0  0  0  0  0  0  0  0  0
  1  2  1  0  0  0  0
  2  7  2  0  0  0  0
  3  4  2  0  0  0  0
  3  2  1  0  0  0  0
  4  5  1  0  0  0  0
  5  8  1  0  0  0  0
  5  6  2  0  0  0  0
  6 18  1  0  0  0  0
  7  6  1  0  0  0  0
  7 19  1  0  0  0  0
  8 20  1  6  0  0  0
  8  9  1  0  0  0  0
  8 15  1  0  0  0  0
  9 10  1  0  0  0  0
 10 11  2  0  0  0  0
 12 11  1  0  0  0  0
 13  9  1  0  0  0  0
 13 12  2  0  0  0  0
 14 13  1  0  0  0  0
 15 23  1  0  0  0  0
 15 22  1  0  0  0  0
 16  3  1  0  0  0  0
 17  4  1  0  0  0  0
 21 14  1  0  0  0  0
 24 15  1  0  0  0  0
M  END
