38361801.xyz
 OpenBabel08132112123D
COc1cc(F)ccc1n1cnnc1S
 23 24  0  0  0  0  0  0  0  0999 V2000
   -3.4905   -3.2930    3.3984 C   0  0  0  0  0  0  0  0  0  0  0  0
   -2.7494   -2.1303    3.0860 O   0  0  0  0  0  0  0  0  0  0  0  0
   -3.3096   -1.1747    2.3215 C   0  0  0  0  0  0  0  0  0  0  0  0
   -4.6186   -1.2246    1.8260 C   0  0  0  0  0  0  0  0  0  0  0  0
   -5.0842   -0.1731    1.0368 C   0  0  0  0  0  0  0  0  0  0  0  0
   -6.3357   -0.2433    0.5692 F   0  0  0  0  0  0  0  0  0  0  0  0
   -4.3027    0.9333    0.7250 C   0  0  0  0  0  0  0  0  0  0  0  0
   -3.0030    0.9821    1.2335 C   0  0  0  0  0  0  0  0  0  0  0  0
   -2.4991   -0.0548    2.0185 C   0  0  0  0  0  0  0  0  0  0  0  0
   -1.1638   -0.0163    2.4979 N   0  0  0  0  0  0  0  0  0  0  0  0
   -0.7188   -0.0396    3.8052 C   0  0  0  0  0  0  0  0  0  0  0  0
    0.5835   -0.0240    3.8462 N   0  0  0  0  0  0  0  0  0  0  0  0
    1.0461    0.0000    2.5480 N   0  0  0  0  0  0  0  0  0  0  0  0
    0.0000    0.0000    1.7600 C   0  0  0  0  0  0  0  0  0  0  0  0
    0.0000    0.0000    0.0000 S   0  0  0  0  0  0  0  0  0  0  0  0
   -3.7818   -3.8417    2.4863 H   0  0  0  0  0  0  0  0  0  0  0  0
   -4.3970   -3.0501    3.9795 H   0  0  0  0  0  0  0  0  0  0  0  0
   -2.8307   -3.9251    4.0054 H   0  0  0  0  0  0  0  0  0  0  0  0
   -5.2853   -2.0606    2.0282 H   0  0  0  0  0  0  0  0  0  0  0  0
   -4.7105    1.7325    0.1060 H   0  0  0  0  0  0  0  0  0  0  0  0
   -2.3581    1.8347    1.0153 H   0  0  0  0  0  0  0  0  0  0  0  0
   -1.3970   -0.0662    4.6553 H   0  0  0  0  0  0  0  0  0  0  0  0
    1.3515   -0.0187   -0.0454 H   0  0  0  0  0  0  0  0  0  0  0  0
  1 17  1  0  0  0  0
  1 18  1  0  0  0  0
  2  1  1  0  0  0  0
  3  2  1  0  0  0  0
  4 19  1  0  0  0  0
  4  3  2  0  0  0  0
  5  4  1  0  0  0  0
  6  5  1  0  0  0  0
  7  5  2  0  0  0  0
  7  8  1  0  0  0  0
  8  9  2  0  0  0  0
  9  3  1  0  0  0  0
  9 10  1  0  0  0  0
 10 11  1  0  0  0  0
 11 12  2  0  0  0  0
 11 22  1  0  0  0  0
 13 12  1  0  0  0  0
 14 10  1  0  0  0  0
 14 13  2  0  0  0  0
 15 14  1  0  0  0  0
 16  1  1  0  0  0  0
 20  7  1  0  0  0  0
 21  8  1  0  0  0  0
 23 15  1  0  0  0  0
M  END
