38594130.xyz
 OpenBabel08132112123D
Sc1nnc(n1CCCS(=O)(=O)C)C1CC1
 31 32  0  0  0  0  0  0  0  0999 V2000
    0.0000    0.0000    0.0000 S   0  0  0  0  0  0  0  0  0  0  0  0
   -0.0000    0.0000    1.7630 C   0  0  0  0  0  0  0  0  0  0  0  0
   -1.0494   -0.0165    2.5447 N   0  0  0  0  0  0  0  0  0  0  0  0
   -0.5875   -0.0305    3.8398 N   0  0  0  0  0  0  0  0  0  0  0  0
    0.7244   -0.0168    3.8133 C   0  0  0  0  0  0  0  0  0  0  0  0
    1.1627    0.0000    2.4995 N   0  0  0  0  0  0  0  0  0  0  0  0
    2.5182    0.0799    1.9739 C   0  0  0  0  0  0  0  0  0  0  0  0
    2.9051    1.5064    1.5658 C   0  0  0  0  0  0  0  0  0  0  0  0
    2.9948    2.4918    2.7307 C   0  0  0  0  0  0  0  0  0  0  0  0
    4.5699    2.2735    3.6133 S   0  0  0  0  0  0  0  0  0  0  0  0
    4.5673    0.9596    4.2846 O   0  0  0  0  0  0  0  0  0  0  0  0
    5.6484    2.6058    2.6730 O   0  0  0  0  0  0  0  0  0  0  0  0
    4.5322    3.5378    4.8935 C   0  0  0  0  0  0  0  0  0  0  0  0
    1.6096    0.0341    4.9913 C   0  0  0  0  0  0  0  0  0  0  0  0
    1.0094   -0.2151    6.3500 C   0  0  0  0  0  0  0  0  0  0  0  0
    1.4425    1.1743    5.9873 C   0  0  0  0  0  0  0  0  0  0  0  0
   -1.3481   -0.0840   -0.0548 H   0  0  0  0  0  0  0  0  0  0  0  0
    2.5834   -0.5841    1.0985 H   0  0  0  0  0  0  0  0  0  0  0  0
    3.2119   -0.3024    2.7321 H   0  0  0  0  0  0  0  0  0  0  0  0
    3.8736    1.4848    1.0408 H   0  0  0  0  0  0  0  0  0  0  0  0
    2.1644    1.8878    0.8452 H   0  0  0  0  0  0  0  0  0  0  0  0
    2.1825    2.3660    3.4611 H   0  0  0  0  0  0  0  0  0  0  0  0
    3.0093    3.5315    2.3737 H   0  0  0  0  0  0  0  0  0  0  0  0
    5.4639    3.3959    5.4578 H   0  0  0  0  0  0  0  0  0  0  0  0
    3.6609    3.3754    5.5405 H   0  0  0  0  0  0  0  0  0  0  0  0
    4.5155    4.5281    4.4213 H   0  0  0  0  0  0  0  0  0  0  0  0
    2.6393   -0.2834    4.8242 H   0  0  0  0  0  0  0  0  0  0  0  0
    1.6093   -0.7778    7.0692 H   0  0  0  0  0  0  0  0  0  0  0  0
   -0.0636   -0.4179    6.3662 H   0  0  0  0  0  0  0  0  0  0  0  0
    0.6603    1.9091    5.7775 H   0  0  0  0  0  0  0  0  0  0  0  0
    2.3569    1.5684    6.4395 H   0  0  0  0  0  0  0  0  0  0  0  0
  1  2  1  0  0  0  0
  2  6  1  0  0  0  0
  2  3  2  0  0  0  0
  3  4  1  0  0  0  0
  5  4  2  0  0  0  0
  5 14  1  0  0  0  0
  6  5  1  0  0  0  0
  7  6  1  0  0  0  0
  7 19  1  0  0  0  0
  8  7  1  0  0  0  0
  8  9  1  0  0  0  0
  9 22  1  0  0  0  0
  9 10  1  0  0  0  0
 10 11  2  0  0  0  0
 10 13  1  0  0  0  0
 12 10  2  0  0  0  0
 13 24  1  0  0  0  0
 13 25  1  0  0  0  0
 14 16  1  0  0  0  0
 14 15  1  0  0  0  0
 15 29  1  0  0  0  0
 15 28  1  0  0  0  0
 16 15  1  0  0  0  0
 16 31  1  0  0  0  0
 17  1  1  0  0  0  0
 18  7  1  0  0  0  0
 20  8  1  0  0  0  0
 21  8  1  0  0  0  0
 23  9  1  0  0  0  0
 26 13  1  0  0  0  0
 27 14  1  0  0  0  0
 30 16  1  0  0  0  0
M  END
