38706093.xyz
 OpenBabel08132112123D
CCOC(=O)CCn1c(S)nc2c1cccc2
 31 32  0  0  0  0  0  0  0  0999 V2000
    0.7251   -3.4872    1.4452 C   0  0  0  0  0  0  0  0  0  0  0  0
   -0.5388   -4.1213    1.9953 C   0  0  0  0  0  0  0  0  0  0  0  0
   -1.4750   -3.1265    2.4594 O   0  0  0  0  0  0  0  0  0  0  0  0
   -2.2926   -2.5690    1.5547 C   0  0  0  0  0  0  0  0  0  0  0  0
   -2.3162   -2.8538    0.3823 O   0  0  0  0  0  0  0  0  0  0  0  0
   -3.1482   -1.4910    2.1900 C   0  0  0  0  0  0  0  0  0  0  0  0
   -2.5370   -0.1001    1.9539 C   0  0  0  0  0  0  0  0  0  0  0  0
   -1.1887    0.0141    2.4738 N   0  0  0  0  0  0  0  0  0  0  0  0
    0.0000   -0.0000    1.7635 C   0  0  0  0  0  0  0  0  0  0  0  0
    0.0000    0.0000    0.0000 S   0  0  0  0  0  0  0  0  0  0  0  0
    1.0672   -0.0000    2.5198 N   0  0  0  0  0  0  0  0  0  0  0  0
    0.5898    0.0090    3.8226 C   0  0  0  0  0  0  0  0  0  0  0  0
   -0.8291    0.0112    3.8177 C   0  0  0  0  0  0  0  0  0  0  0  0
   -1.5826    0.0236    4.9930 C   0  0  0  0  0  0  0  0  0  0  0  0
   -0.8734    0.0304    6.1967 C   0  0  0  0  0  0  0  0  0  0  0  0
    0.5354    0.0250    6.2191 C   0  0  0  0  0  0  0  0  0  0  0  0
    1.2819    0.0159    5.0405 C   0  0  0  0  0  0  0  0  0  0  0  0
    1.4508   -4.2746    1.1862 H   0  0  0  0  0  0  0  0  0  0  0  0
    0.5054   -2.9065    0.5383 H   0  0  0  0  0  0  0  0  0  0  0  0
    1.1862   -2.8140    2.1829 H   0  0  0  0  0  0  0  0  0  0  0  0
   -1.0352   -4.7428    1.2354 H   0  0  0  0  0  0  0  0  0  0  0  0
   -0.3294   -4.7338    2.8835 H   0  0  0  0  0  0  0  0  0  0  0  0
   -3.2452   -1.6845    3.2665 H   0  0  0  0  0  0  0  0  0  0  0  0
   -4.1437   -1.5215    1.7240 H   0  0  0  0  0  0  0  0  0  0  0  0
   -3.1682    0.6694    2.4264 H   0  0  0  0  0  0  0  0  0  0  0  0
   -2.5081    0.1184    0.8767 H   0  0  0  0  0  0  0  0  0  0  0  0
    1.3437    0.1295   -0.0487 H   0  0  0  0  0  0  0  0  0  0  0  0
   -2.6742    0.0299    4.9824 H   0  0  0  0  0  0  0  0  0  0  0  0
   -1.4240    0.0399    7.1401 H   0  0  0  0  0  0  0  0  0  0  0  0
    1.0511    0.0294    7.1822 H   0  0  0  0  0  0  0  0  0  0  0  0
    2.3733    0.0156    5.0511 H   0  0  0  0  0  0  0  0  0  0  0  0
  1  2  1  0  0  0  0
  1 20  1  0  0  0  0
  2  3  1  0  0  0  0
  2 22  1  0  0  0  0
  4  6  1  0  0  0  0
  4  3  1  0  0  0  0
  5  4  2  0  0  0  0
  6 23  1  0  0  0  0
  7  6  1  0  0  0  0
  7 25  1  0  0  0  0
  7  8  1  0  0  0  0
  8 13  1  0  0  0  0
  9  8  1  0  0  0  0
  9 11  2  0  0  0  0
 10  9  1  0  0  0  0
 11 12  2  0  0  0  0
 12 17  1  0  0  0  0
 13 12  1  0  0  0  0
 13 14  2  0  0  0  0
 14 15  1  0  0  0  0
 15 16  1  0  0  0  0
 15 29  1  0  0  0  0
 16 30  1  0  0  0  0
 17 31  1  0  0  0  0
 17 16  2  0  0  0  0
 18  1  1  0  0  0  0
 19  1  1  0  0  0  0
 21  2  1  0  0  0  0
 24  6  1  0  0  0  0
 26  7  1  0  0  0  0
 27 10  1  0  0  0  0
 28 14  1  0  0  0  0
M  RAD  1  15   2
M  END
