3924853.xyz
 OpenBabel08132112123D
CC1=CC(N=C(N1)S)(C)C
 22 22  0  0  0  0  0  0  0  0999 V2000
   -2.8517    0.0006    4.2018 C   0  0  0  0  0  0  0  0  0  0  0  0
   -1.4337    0.0003    3.7189 C   0  0  0  0  0  0  0  0  0  0  0  0
   -0.3409    0.0003    4.4977 C   0  0  0  0  0  0  0  0  0  0  0  0
    1.0692   -0.0000    3.9295 C   0  0  0  0  0  0  0  0  0  0  0  0
    1.0821    0.0000    2.4544 N   0  0  0  0  0  0  0  0  0  0  0  0
    0.0000   -0.0000    1.7942 C   0  0  0  0  0  0  0  0  0  0  0  0
   -1.2752    0.0000    2.3257 N   0  0  0  0  0  0  0  0  0  0  0  0
    0.0000    0.0000    0.0000 S   0  0  0  0  0  0  0  0  0  0  0  0
    1.8250   -1.2578    4.3956 C   0  0  0  0  0  0  0  0  0  0  0  0
    1.8257    1.2573    4.3957 C   0  0  0  0  0  0  0  0  0  0  0  0
   -2.8900    0.0007    5.2989 H   0  0  0  0  0  0  0  0  0  0  0  0
   -3.3942    0.8899    3.8359 H   0  0  0  0  0  0  0  0  0  0  0  0
   -3.3945   -0.8886    3.8360 H   0  0  0  0  0  0  0  0  0  0  0  0
   -0.4594    0.0006    5.5836 H   0  0  0  0  0  0  0  0  0  0  0  0
   -2.0847    0.0001    1.7207 H   0  0  0  0  0  0  0  0  0  0  0  0
    1.3476   -0.0000   -0.0705 H   0  0  0  0  0  0  0  0  0  0  0  0
    1.8966   -1.2871    5.4951 H   0  0  0  0  0  0  0  0  0  0  0  0
    1.3016   -2.1645    4.0572 H   0  0  0  0  0  0  0  0  0  0  0  0
    2.8419   -1.2658    3.9737 H   0  0  0  0  0  0  0  0  0  0  0  0
    1.3028    2.1644    4.0576 H   0  0  0  0  0  0  0  0  0  0  0  0
    1.8976    1.2864    5.4952 H   0  0  0  0  0  0  0  0  0  0  0  0
    2.8425    1.2648    3.9734 H   0  0  0  0  0  0  0  0  0  0  0  0
  1 11  1  0  0  0  0
  2  1  1  0  0  0  0
  2  3  2  0  0  0  0
  3 14  1  0  0  0  0
  4  9  1  0  0  0  0
  4 10  1  0  0  0  0
  4  3  1  0  0  0  0
  5  4  1  0  0  0  0
  6  7  1  0  0  0  0
  6  5  2  0  0  0  0
  7  2  1  0  0  0  0
  8  6  1  0  0  0  0
  9 17  1  0  0  0  0
 10 21  1  0  0  0  0
 12  1  1  0  0  0  0
 13  1  1  0  0  0  0
 15  7  1  0  0  0  0
 16  8  1  0  0  0  0
 18  9  1  0  0  0  0
 19  9  1  0  0  0  0
 20 10  1  0  0  0  0
 22 10  1  0  0  0  0
M  END
