39496133.xyz
 OpenBabel08132112123D
Brc1ccc(c(c1)C(F)(F)F)c1noc(n1)S
 21 22  0  0  0  0  0  0  0  0999 V2000
   -3.1014    0.4683    9.3222 Br  0  0  0  0  0  0  0  0  0  0  0  0
   -2.2747    0.3002    7.6203 C   0  0  0  0  0  0  0  0  0  0  0  0
   -1.0626    0.9437    7.3700 C   0  0  0  0  0  0  0  0  0  0  0  0
   -0.4793    0.8153    6.1122 C   0  0  0  0  0  0  0  0  0  0  0  0
   -1.0807    0.0570    5.0946 C   0  0  0  0  0  0  0  0  0  0  0  0
   -2.2954   -0.6062    5.3743 C   0  0  0  0  0  0  0  0  0  0  0  0
   -2.8859   -0.4754    6.6344 C   0  0  0  0  0  0  0  0  0  0  0  0
   -2.9954   -1.5008    4.3656 C   0  0  0  0  0  0  0  0  0  0  0  0
   -3.6544   -0.7994    3.4350 F   0  0  0  0  0  0  0  0  0  0  0  0
   -3.9042   -2.2899    4.9715 F   0  0  0  0  0  0  0  0  0  0  0  0
   -2.1301   -2.3154    3.7412 F   0  0  0  0  0  0  0  0  0  0  0  0
   -0.3847   -0.0016    3.7950 C   0  0  0  0  0  0  0  0  0  0  0  0
    0.9280   -0.0038    3.7322 N   0  0  0  0  0  0  0  0  0  0  0  0
    1.1902    0.0000    2.3628 O   0  0  0  0  0  0  0  0  0  0  0  0
   -0.0000    0.0000    1.7461 C   0  0  0  0  0  0  0  0  0  0  0  0
   -1.0066    0.0043    2.5675 N   0  0  0  0  0  0  0  0  0  0  0  0
    0.0000    0.0000    0.0000 S   0  0  0  0  0  0  0  0  0  0  0  0
   -0.5833    1.5422    8.1455 H   0  0  0  0  0  0  0  0  0  0  0  0
    0.4641    1.3181    5.8963 H   0  0  0  0  0  0  0  0  0  0  0  0
   -3.8175   -0.9953    6.8505 H   0  0  0  0  0  0  0  0  0  0  0  0
   -1.3506   -0.0235   -0.0581 H   0  0  0  0  0  0  0  0  0  0  0  0
  2  1  1  0  0  0  0
  3  2  1  0  0  0  0
  3 18  1  0  0  0  0
  4  3  2  0  0  0  0
  5  6  2  0  0  0  0
  5  4  1  0  0  0  0
  6  7  1  0  0  0  0
  7 20  1  0  0  0  0
  7  2  2  0  0  0  0
  8 10  1  0  0  0  0
  8  6  1  0  0  0  0
  9  8  1  0  0  0  0
 11  8  1  0  0  0  0
 12  5  1  0  0  0  0
 13 12  2  0  0  0  0
 14 13  1  0  0  0  0
 15 14  1  0  0  0  0
 15 16  2  0  0  0  0
 16 12  2  0  0  0  0
 17 15  1  0  0  0  0
 19  4  1  0  0  0  0
 21 17  1  0  0  0  0
M  END
