39695170.xyz
 OpenBabel08132112123D
CC1CCC(CC1)Cn1c(S)n[nH]c1=O
 32 33  0  0  1  0  0  0  0  0999 V2000
    4.7900   -4.5317   -0.2295 C   0  0  0  0  0  0  0  0  0  0  0  0
    4.6428   -3.0235   -0.0188 C   0  0  2  0  0  0  0  0  0  0  0  0
    5.2928   -2.5854    1.3134 C   0  0  0  0  0  0  0  0  0  0  0  0
    4.7181   -1.2606    1.8145 C   0  0  0  0  0  0  0  0  0  0  0  0
    3.2196   -1.3950    2.1702 C   0  0  2  0  0  0  0  0  0  0  0  0
    2.5416   -2.4892    1.3165 C   0  0  0  0  0  0  0  0  0  0  0  0
    3.1606   -2.5710   -0.0798 C   0  0  0  0  0  0  0  0  0  0  0  0
    2.5451   -0.0240    2.0306 C   0  0  0  0  0  0  0  0  0  0  0  0
    1.1685    0.0000    2.4893 N   0  0  0  0  0  0  0  0  0  0  0  0
   -0.0000   -0.0000    1.7625 C   0  0  0  0  0  0  0  0  0  0  0  0
    0.0000    0.0000    0.0000 S   0  0  0  0  0  0  0  0  0  0  0  0
   -1.0574    0.0075    2.5177 N   0  0  0  0  0  0  0  0  0  0  0  0
   -0.5521    0.0087    3.7978 N   0  0  0  0  0  0  0  0  0  0  0  0
    0.8224    0.0037    3.8547 C   0  0  0  0  0  0  0  0  0  0  0  0
    1.5766    0.0040    4.8062 O   0  0  0  0  0  0  0  0  0  0  0  0
    4.2097   -5.0921    0.5235 H   0  0  0  0  0  0  0  0  0  0  0  0
    5.8418   -4.8486   -0.1381 H   0  0  0  0  0  0  0  0  0  0  0  0
    4.4298   -4.8370   -1.2249 H   0  0  0  0  0  0  0  0  0  0  0  0
    5.1819   -2.5137   -0.8367 H   0  0  0  0  0  0  0  0  0  0  0  0
    6.3856   -2.5163    1.1906 H   0  0  0  0  0  0  0  0  0  0  0  0
    5.1218   -3.3614    2.0807 H   0  0  0  0  0  0  0  0  0  0  0  0
    5.2780   -0.8898    2.6874 H   0  0  0  0  0  0  0  0  0  0  0  0
    4.8471   -0.4994    1.0229 H   0  0  0  0  0  0  0  0  0  0  0  0
    3.1345   -1.6740    3.2324 H   0  0  0  0  0  0  0  0  0  0  0  0
    2.6534   -3.4634    1.8196 H   0  0  0  0  0  0  0  0  0  0  0  0
    1.4569   -2.3131    1.2534 H   0  0  0  0  0  0  0  0  0  0  0  0
    3.0883   -1.5813   -0.5621 H   0  0  0  0  0  0  0  0  0  0  0  0
    2.5817   -3.2558   -0.7201 H   0  0  0  0  0  0  0  0  0  0  0  0
    3.1014    0.7164    2.6257 H   0  0  0  0  0  0  0  0  0  0  0  0
    2.5580    0.3158    0.9828 H   0  0  0  0  0  0  0  0  0  0  0  0
   -1.3476    0.0845   -0.0657 H   0  0  0  0  0  0  0  0  0  0  0  0
   -1.1730    0.0190    4.5958 H   0  0  0  0  0  0  0  0  0  0  0  0
  1 17  1  0  0  0  0
  1  2  1  0  0  0  0
  1 16  1  0  0  0  0
  2 19  1  6  0  0  0
  2  3  1  0  0  0  0
  3  4  1  0  0  0  0
  3 21  1  0  0  0  0
  4  5  1  0  0  0  0
  4 22  1  0  0  0  0
  5 24  1  1  0  0  0
  6 25  1  0  0  0  0
  6  5  1  0  0  0  0
  7  2  1  0  0  0  0
  7  6  1  0  0  0  0
  8  5  1  0  0  0  0
  8  9  1  0  0  0  0
  8 29  1  0  0  0  0
  9 14  1  0  0  0  0
 10  9  1  0  0  0  0
 10 12  2  0  0  0  0
 11 10  1  0  0  0  0
 12 13  1  0  0  0  0
 13 14  1  0  0  0  0
 13 32  1  0  0  0  0
 14 15  2  0  0  0  0
 18  1  1  0  0  0  0
 20  3  1  0  0  0  0
 23  4  1  0  0  0  0
 26  6  1  0  0  0  0
 27  7  1  0  0  0  0
 28  7  1  0  0  0  0
 30  8  1  0  0  0  0
 31 11  1  0  0  0  0
M  END
