39768705.xyz
 OpenBabel08132112123D
CCCCn1nc(cc1S)C1CC1
 29 30  0  0  0  0  0  0  0  0999 V2000
    4.9139    3.2361    1.7870 C   0  0  0  0  0  0  0  0  0  0  0  0
    4.4409    1.7844    1.7348 C   0  0  0  0  0  0  0  0  0  0  0  0
    2.9779    1.6166    2.1436 C   0  0  0  0  0  0  0  0  0  0  0  0
    2.5115    0.1624    2.0863 C   0  0  0  0  0  0  0  0  0  0  0  0
    1.1385    0.0000    2.5256 N   0  0  0  0  0  0  0  0  0  0  0  0
    0.8629   -0.0549    3.8362 N   0  0  0  0  0  0  0  0  0  0  0  0
   -0.4687   -0.1238    3.9368 C   0  0  0  0  0  0  0  0  0  0  0  0
   -1.0654   -0.0928    2.6536 C   0  0  0  0  0  0  0  0  0  0  0  0
   -0.0000    0.0000    1.7647 C   0  0  0  0  0  0  0  0  0  0  0  0
    0.0000    0.0000    0.0000 S   0  0  0  0  0  0  0  0  0  0  0  0
   -1.1405   -0.2202    5.2532 C   0  0  0  0  0  0  0  0  0  0  0  0
   -0.5506    0.4920    6.4527 C   0  0  0  0  0  0  0  0  0  0  0  0
   -0.4894   -1.0041    6.3741 C   0  0  0  0  0  0  0  0  0  0  0  0
    4.8116    3.6509    2.8033 H   0  0  0  0  0  0  0  0  0  0  0  0
    5.9708    3.3286    1.4922 H   0  0  0  0  0  0  0  0  0  0  0  0
    4.3207    3.8731    1.1101 H   0  0  0  0  0  0  0  0  0  0  0  0
    5.0743    1.1637    2.3938 H   0  0  0  0  0  0  0  0  0  0  0  0
    4.5839    1.3834    0.7149 H   0  0  0  0  0  0  0  0  0  0  0  0
    2.3326    2.2259    1.4857 H   0  0  0  0  0  0  0  0  0  0  0  0
    2.8216    1.9915    3.1691 H   0  0  0  0  0  0  0  0  0  0  0  0
    3.1328   -0.4687    2.7385 H   0  0  0  0  0  0  0  0  0  0  0  0
    2.5782   -0.2274    1.0600 H   0  0  0  0  0  0  0  0  0  0  0  0
   -2.1206   -0.1337    2.3973 H   0  0  0  0  0  0  0  0  0  0  0  0
    0.2353    1.3246   -0.1804 H   0  0  0  0  0  0  0  0  0  0  0  0
   -2.2309   -0.2619    5.1886 H   0  0  0  0  0  0  0  0  0  0  0  0
   -1.2401    0.9536    7.1651 H   0  0  0  0  0  0  0  0  0  0  0  0
    0.3747    1.0460    6.2747 H   0  0  0  0  0  0  0  0  0  0  0  0
   -1.1359   -1.5925    7.0313 H   0  0  0  0  0  0  0  0  0  0  0  0
    0.4770   -1.4592    6.1424 H   0  0  0  0  0  0  0  0  0  0  0  0
  1 14  1  0  0  0  0
  2  1  1  0  0  0  0
  2  3  1  0  0  0  0
  2 17  1  0  0  0  0
  3 20  1  0  0  0  0
  4  3  1  0  0  0  0
  4  5  1  0  0  0  0
  4 21  1  0  0  0  0
  5  6  1  0  0  0  0
  6  7  2  0  0  0  0
  7 11  1  0  0  0  0
  8  7  1  0  0  0  0
  9  5  1  0  0  0  0
  9  8  2  0  0  0  0
 10  9  1  0  0  0  0
 11 13  1  0  0  0  0
 11 12  1  0  0  0  0
 12 26  1  0  0  0  0
 13 12  1  0  0  0  0
 13 28  1  0  0  0  0
 15  1  1  0  0  0  0
 16  1  1  0  0  0  0
 18  2  1  0  0  0  0
 19  3  1  0  0  0  0
 22  4  1  0  0  0  0
 23  8  1  0  0  0  0
 24 10  1  0  0  0  0
 25 11  1  0  0  0  0
 27 12  1  0  0  0  0
 29 13  1  0  0  0  0
M  END
