39768645.xyz
 OpenBabel08132112123D
Cc1cccc(c1)n1nc(cc1S)C1CC1
 30 32  0  0  0  0  0  0  0  0999 V2000
    4.5906    1.6805   -0.6415 C   0  0  0  0  0  0  0  0  0  0  0  0
    4.2058    0.8338    0.5453 C   0  0  0  0  0  0  0  0  0  0  0  0
    5.1483    0.0535    1.2257 C   0  0  0  0  0  0  0  0  0  0  0  0
    4.7724   -0.7161    2.3324 C   0  0  0  0  0  0  0  0  0  0  0  0
    3.4500   -0.7385    2.7661 C   0  0  0  0  0  0  0  0  0  0  0  0
    2.4981    0.0307    2.0826 C   0  0  0  0  0  0  0  0  0  0  0  0
    2.8773    0.8254    0.9978 C   0  0  0  0  0  0  0  0  0  0  0  0
    1.1500    0.0000    2.5180 N   0  0  0  0  0  0  0  0  0  0  0  0
    0.8782   -0.0811    3.8468 N   0  0  0  0  0  0  0  0  0  0  0  0
   -0.4444   -0.1260    3.9474 C   0  0  0  0  0  0  0  0  0  0  0  0
   -1.0563   -0.0695    2.6630 C   0  0  0  0  0  0  0  0  0  0  0  0
    0.0000    0.0000    1.7686 C   0  0  0  0  0  0  0  0  0  0  0  0
    0.0000    0.0000    0.0000 S   0  0  0  0  0  0  0  0  0  0  0  0
   -1.0894   -0.2108    5.2752 C   0  0  0  0  0  0  0  0  0  0  0  0
   -2.3689   -1.0002    5.4564 C   0  0  0  0  0  0  0  0  0  0  0  0
   -2.4015    0.4979    5.5373 C   0  0  0  0  0  0  0  0  0  0  0  0
    4.2883    2.7306   -0.4979 H   0  0  0  0  0  0  0  0  0  0  0  0
    4.0934    1.3246   -1.5593 H   0  0  0  0  0  0  0  0  0  0  0  0
    5.6758    1.6603   -0.8166 H   0  0  0  0  0  0  0  0  0  0  0  0
    6.1890    0.0543    0.8921 H   0  0  0  0  0  0  0  0  0  0  0  0
    5.5217   -1.3124    2.8584 H   0  0  0  0  0  0  0  0  0  0  0  0
    3.1337   -1.3302    3.6243 H   0  0  0  0  0  0  0  0  0  0  0  0
    2.1427    1.4697    0.5110 H   0  0  0  0  0  0  0  0  0  0  0  0
   -2.1148   -0.0830    2.4161 H   0  0  0  0  0  0  0  0  0  0  0  0
   -1.2605   -0.4805   -0.0930 H   0  0  0  0  0  0  0  0  0  0  0  0
   -0.3646   -0.2385    6.0926 H   0  0  0  0  0  0  0  0  0  0  0  0
   -2.7891   -1.4821    4.5690 H   0  0  0  0  0  0  0  0  0  0  0  0
   -2.4852   -1.5771    6.3779 H   0  0  0  0  0  0  0  0  0  0  0  0
   -2.8440    1.0539    4.7058 H   0  0  0  0  0  0  0  0  0  0  0  0
   -2.5407    0.9665    6.5153 H   0  0  0  0  0  0  0  0  0  0  0  0
  1 17  1  0  0  0  0
  1  2  1  0  0  0  0
  2  7  2  0  0  0  0
  2  3  1  0  0  0  0
  3  4  2  0  0  0  0
  4  5  1  0  0  0  0
  4 21  1  0  0  0  0
  5 22  1  0  0  0  0
  6  8  1  0  0  0  0
  6  5  2  0  0  0  0
  7  6  1  0  0  0  0
  8  9  1  0  0  0  0
  9 10  2  0  0  0  0
 10 14  1  0  0  0  0
 11 10  1  0  0  0  0
 12  8  1  0  0  0  0
 12 11  2  0  0  0  0
 13 12  1  0  0  0  0
 14 15  1  0  0  0  0
 14 16  1  0  0  0  0
 14 26  1  0  0  0  0
 15 16  1  0  0  0  0
 15 28  1  0  0  0  0
 16 30  1  0  0  0  0
 18  1  1  0  0  0  0
 19  1  1  0  0  0  0
 20  3  1  0  0  0  0
 23  7  1  0  0  0  0
 24 11  1  0  0  0  0
 25 13  1  0  0  0  0
 27 15  1  0  0  0  0
 29 16  1  0  0  0  0
M  END
