39845699.xyz
 OpenBabel08132112123D
CCCc1nn(c(c1)S)c1ccc(cc1)Br
 29 30  0  0  0  0  0  0  0  0999 V2000
   -0.7059    2.7644    5.5235 C   0  0  0  0  0  0  0  0  0  0  0  0
   -1.7329    1.6341    5.5195 C   0  0  0  0  0  0  0  0  0  0  0  0
   -1.1138    0.2444    5.2832 C   0  0  0  0  0  0  0  0  0  0  0  0
   -0.4426    0.1160    3.9494 C   0  0  0  0  0  0  0  0  0  0  0  0
    0.8794    0.0777    3.8478 N   0  0  0  0  0  0  0  0  0  0  0  0
    1.1517   -0.0000    2.5180 N   0  0  0  0  0  0  0  0  0  0  0  0
   -0.0000   -0.0000    1.7679 C   0  0  0  0  0  0  0  0  0  0  0  0
   -1.0535    0.0646    2.6656 C   0  0  0  0  0  0  0  0  0  0  0  0
    0.0000    0.0000    0.0000 S   0  0  0  0  0  0  0  0  0  0  0  0
    2.4995   -0.0257    2.0893 C   0  0  0  0  0  0  0  0  0  0  0  0
    2.8948   -0.7954    0.9892 C   0  0  0  0  0  0  0  0  0  0  0  0
    4.2272   -0.7883    0.5720 C   0  0  0  0  0  0  0  0  0  0  0  0
    5.1645   -0.0314    1.2763 C   0  0  0  0  0  0  0  0  0  0  0  0
    4.7836    0.7160    2.3957 C   0  0  0  0  0  0  0  0  0  0  0  0
    3.4506    0.7210    2.7985 C   0  0  0  0  0  0  0  0  0  0  0  0
    6.9842   -0.0250    0.7151 Br  0  0  0  0  0  0  0  0  0  0  0  0
    0.0497    2.6102    6.3114 H   0  0  0  0  0  0  0  0  0  0  0  0
   -1.1849    3.7402    5.7013 H   0  0  0  0  0  0  0  0  0  0  0  0
   -0.1692    2.8203    4.5635 H   0  0  0  0  0  0  0  0  0  0  0  0
   -2.4951    1.8264    4.7436 H   0  0  0  0  0  0  0  0  0  0  0  0
   -2.2744    1.6168    6.4810 H   0  0  0  0  0  0  0  0  0  0  0  0
   -0.3632    0.0319    6.0607 H   0  0  0  0  0  0  0  0  0  0  0  0
   -1.9006   -0.5235    5.3710 H   0  0  0  0  0  0  0  0  0  0  0  0
   -2.1140    0.0753    2.4266 H   0  0  0  0  0  0  0  0  0  0  0  0
   -1.2751    0.4387   -0.0933 H   0  0  0  0  0  0  0  0  0  0  0  0
    2.1747   -1.4264    0.4669 H   0  0  0  0  0  0  0  0  0  0  0  0
    4.5357   -1.3856   -0.2868 H   0  0  0  0  0  0  0  0  0  0  0  0
    5.5257    1.2977    2.9441 H   0  0  0  0  0  0  0  0  0  0  0  0
    3.1279    1.2933    3.6677 H   0  0  0  0  0  0  0  0  0  0  0  0
  1 18  1  0  0  0  0
  1 17  1  0  0  0  0
  2  1  1  0  0  0  0
  2 21  1  0  0  0  0
  3 23  1  0  0  0  0
  3  2  1  0  0  0  0
  3 22  1  0  0  0  0
  4  3  1  0  0  0  0
  5  4  2  0  0  0  0
  6  5  1  0  0  0  0
  7  6  1  0  0  0  0
  7  8  2  0  0  0  0
  8  4  1  0  0  0  0
  9  7  1  0  0  0  0
 10  6  1  0  0  0  0
 10 15  2  0  0  0  0
 11 10  1  0  0  0  0
 12 11  2  0  0  0  0
 12 13  1  0  0  0  0
 13 14  2  0  0  0  0
 14 15  1  0  0  0  0
 14 28  1  0  0  0  0
 15 29  1  0  0  0  0
 16 13  1  0  0  0  0
 19  1  1  0  0  0  0
 20  2  1  0  0  0  0
 24  8  1  0  0  0  0
 25  9  1  0  0  0  0
 26 11  1  0  0  0  0
 27 12  1  0  0  0  0
M  END
