3987503.xyz
 OpenBabel08132112123D
Sc1nc2sc(cc2c(=O)n1C1CCCCCC1)C
 37 39  0  0  1  0  0  0  0  0999 V2000
    0.0000    0.0000    0.0000 S   0  0  0  0  0  0  0  0  0  0  0  0
   -0.0000    0.0000    1.7824 C   0  0  0  0  0  0  0  0  0  0  0  0
   -1.1681   -0.0022    2.3634 N   0  0  0  0  0  0  0  0  0  0  0  0
   -1.1651    0.0006    3.7131 C   0  0  0  0  0  0  0  0  0  0  0  0
   -2.6181    0.0016    4.6825 S   0  0  0  0  0  0  0  0  0  0  0  0
   -1.6726    0.0068    6.1723 C   0  0  0  0  0  0  0  0  0  0  0  0
   -0.3285    0.0084    5.9150 C   0  0  0  0  0  0  0  0  0  0  0  0
   -0.0288    0.0043    4.5159 C   0  0  2  0  0  0  0  0  0  0  0  0
    1.2693    0.0107    3.8845 C   0  0  0  0  0  0  0  0  0  0  0  0
    2.3437    0.0267    4.4609 O   0  0  0  0  0  0  0  0  0  0  0  0
    1.2056    0.0000    2.4425 N   0  0  0  0  0  0  0  0  0  0  0  0
    2.5251    0.0344    1.7607 C   0  0  0  0  0  0  0  0  0  0  0  0
    2.7833    1.4324    1.1692 C   0  0  0  0  0  0  0  0  0  0  0  0
    3.9831    1.5230    0.2181 C   0  0  0  0  0  0  0  0  0  0  0  0
    5.2475    0.7560    0.6397 C   0  0  0  0  0  0  0  0  0  0  0  0
    5.2548   -0.7176    0.2089 C   0  0  0  0  0  0  0  0  0  0  0  0
    4.2450   -1.6362    0.9032 C   0  0  0  0  0  0  0  0  0  0  0  0
    2.7796   -1.1802    0.8471 C   0  0  0  0  0  0  0  0  0  0  0  0
   -2.3661    0.0093    7.4976 C   0  0  0  0  0  0  0  0  0  0  0  0
   -1.3492    0.0618   -0.0295 H   0  0  0  0  0  0  0  0  0  0  0  0
    0.4385    0.0123    6.6895 H   0  0  0  0  0  0  0  0  0  0  0  0
    3.2107   -0.0820    2.6068 H   0  0  0  0  0  0  0  0  0  0  0  0
    2.9321    2.1149    2.0225 H   0  0  0  0  0  0  0  0  0  0  0  0
    1.8900    1.7934    0.6375 H   0  0  0  0  0  0  0  0  0  0  0  0
    4.2254    2.5914    0.0975 H   0  0  0  0  0  0  0  0  0  0  0  0
    3.6847    1.1744   -0.7860 H   0  0  0  0  0  0  0  0  0  0  0  0
    5.3987    0.8385    1.7313 H   0  0  0  0  0  0  0  0  0  0  0  0
    6.1222    1.2443    0.1793 H   0  0  0  0  0  0  0  0  0  0  0  0
    5.0798   -0.7542   -0.8823 H   0  0  0  0  0  0  0  0  0  0  0  0
    6.2644   -1.1339    0.3662 H   0  0  0  0  0  0  0  0  0  0  0  0
    4.3189   -2.6378    0.4474 H   0  0  0  0  0  0  0  0  0  0  0  0
    4.5296   -1.7622    1.9632 H   0  0  0  0  0  0  0  0  0  0  0  0
    2.1426   -2.0077    1.1956 H   0  0  0  0  0  0  0  0  0  0  0  0
    2.4898   -0.9844   -0.1967 H   0  0  0  0  0  0  0  0  0  0  0  0
   -3.0091    0.8966    7.6220 H   0  0  0  0  0  0  0  0  0  0  0  0
   -1.6217    0.0130    8.3069 H   0  0  0  0  0  0  0  0  0  0  0  0
   -3.0057   -0.8797    7.6271 H   0  0  0  0  0  0  0  0  0  0  0  0
  1  2  1  0  0  0  0
  2  3  2  0  0  0  0
  2 11  1  0  0  0  0
  3  4  2  0  0  0  0
  4  5  1  0  0  0  0
  5  6  1  0  0  0  0
  6 19  1  0  0  0  0
  7  6  2  0  0  0  0
  7 21  1  0  0  0  0
  8  4  1  6  0  0  0
  8  7  1  0  0  0  0
  9 10  2  0  0  0  0
  9  8  1  0  0  0  0
 11  9  1  0  0  0  0
 12 11  1  0  0  0  0
 12 22  1  0  0  0  0
 13 12  1  0  0  0  0
 13 23  1  0  0  0  0
 14 15  1  0  0  0  0
 14 13  1  0  0  0  0
 15 27  1  0  0  0  0
 16 30  1  0  0  0  0
 16 15  1  0  0  0  0
 16 17  1  0  0  0  0
 17 32  1  0  0  0  0
 18 17  1  0  0  0  0
 18 33  1  0  0  0  0
 18 12  1  0  0  0  0
 19 35  1  0  0  0  0
 19 37  1  0  0  0  0
 19 36  1  0  0  0  0
 20  1  1  0  0  0  0
 24 13  1  0  0  0  0
 25 14  1  0  0  0  0
 26 14  1  0  0  0  0
 28 15  1  0  0  0  0
 29 16  1  0  0  0  0
 31 17  1  0  0  0  0
 34 18  1  0  0  0  0
M  RAD  1   8   2
M  END
