4005720.xyz
 OpenBabel08132112123D
Cc1ccc(o1)c1nc2ccccc2c(c1)c1nnc(n1C)S
 37 40  0  0  1  0  0  0  0  0999 V2000
    6.6800   -3.9778    4.0229 C   0  0  0  0  0  0  0  0  0  0  0  0
    6.2130   -3.1094    5.1336 C   0  0  0  0  0  0  0  0  0  0  0  0
    6.7015   -2.8319    6.3860 C   0  0  0  0  0  0  0  0  0  0  0  0
    5.7899   -1.9109    6.9887 C   0  0  0  0  0  0  0  0  0  0  0  0
    4.8013   -1.6847    6.0637 C   0  0  0  0  0  0  0  0  0  0  0  0
    5.0599   -2.4138    4.9338 O   0  0  0  0  0  0  0  0  0  0  0  0
    3.6062   -0.8535    6.0886 C   0  0  0  0  0  0  0  0  0  0  0  0
    3.3840   -0.1445    7.1820 N   0  0  0  0  0  0  0  0  0  0  0  0
    2.2737    0.6310    7.2435 C   0  0  0  0  0  0  0  0  0  0  0  0
    2.0504    1.3807    8.4325 C   0  0  0  0  0  0  0  0  0  0  0  0
    0.9421    2.1888    8.5563 C   0  0  0  0  0  0  0  0  0  0  0  0
    0.0062    2.2838    7.4973 C   0  0  0  0  0  0  0  0  0  0  0  0
    0.1900    1.5715    6.3295 C   0  0  0  0  0  0  0  0  0  0  0  0
    1.3236    0.7312    6.1687 C   0  0  1  0  0  0  0  0  0  0  0  0
    1.5994   -0.0345    4.9844 C   0  0  0  0  0  0  0  0  0  0  0  0
    2.7319   -0.8275    4.9647 C   0  0  0  0  0  0  0  0  0  0  0  0
    0.7134    0.0063    3.8130 C   0  0  0  0  0  0  0  0  0  0  0  0
   -0.6040    0.0219    3.8281 N   0  0  0  0  0  0  0  0  0  0  0  0
   -1.0560    0.0102    2.5401 N   0  0  0  0  0  0  0  0  0  0  0  0
    0.0000   -0.0000    1.7587 C   0  0  0  0  0  0  0  0  0  0  0  0
    1.1557   -0.0000    2.4955 N   0  0  0  0  0  0  0  0  0  0  0  0
    2.5034    0.1084    1.9666 C   0  0  0  0  0  0  0  0  0  0  0  0
    0.0000    0.0000    0.0000 S   0  0  0  0  0  0  0  0  0  0  0  0
    5.9312   -4.7489    3.7752 H   0  0  0  0  0  0  0  0  0  0  0  0
    6.8656   -3.3929    3.1062 H   0  0  0  0  0  0  0  0  0  0  0  0
    7.6140   -4.4812    4.3066 H   0  0  0  0  0  0  0  0  0  0  0  0
    7.6092   -3.2440    6.8214 H   0  0  0  0  0  0  0  0  0  0  0  0
    5.8335   -1.4599    7.9759 H   0  0  0  0  0  0  0  0  0  0  0  0
    2.7902    1.2829    9.2286 H   0  0  0  0  0  0  0  0  0  0  0  0
    0.7804    2.7591    9.4743 H   0  0  0  0  0  0  0  0  0  0  0  0
   -0.8721    2.9238    7.6075 H   0  0  0  0  0  0  0  0  0  0  0  0
   -0.5439    1.6197    5.5265 H   0  0  0  0  0  0  0  0  0  0  0  0
    2.9634   -1.4632    4.1122 H   0  0  0  0  0  0  0  0  0  0  0  0
    2.9173   -0.8781    1.7064 H   0  0  0  0  0  0  0  0  0  0  0  0
    2.4851    0.7360    1.0638 H   0  0  0  0  0  0  0  0  0  0  0  0
    3.1537    0.5800    2.7129 H   0  0  0  0  0  0  0  0  0  0  0  0
   -1.3408    0.1645   -0.0546 H   0  0  0  0  0  0  0  0  0  0  0  0
  1 26  1  0  0  0  0
  1  2  1  0  0  0  0
  2  3  2  0  0  0  0
  3 27  1  0  0  0  0
  3  4  1  0  0  0  0
  4 28  1  0  0  0  0
  5  7  1  0  0  0  0
  5  4  2  0  0  0  0
  6  2  1  0  0  0  0
  6  5  1  0  0  0  0
  7  8  2  0  0  0  0
  8  9  2  0  0  0  0
  9 10  1  0  0  0  0
 10 11  2  0  0  0  0
 10 29  1  0  0  0  0
 11 30  1  0  0  0  0
 12 31  1  0  0  0  0
 12 11  1  0  0  0  0
 13 12  2  0  0  0  0
 14 15  1  6  0  0  0
 14 13  1  0  0  0  0
 14  9  1  0  0  0  0
 16 15  2  0  0  0  0
 16  7  1  0  0  0  0
 17 18  2  0  0  0  0
 17 15  1  0  0  0  0
 19 18  1  0  0  0  0
 20 21  1  0  0  0  0
 20 19  2  0  0  0  0
 21 17  1  0  0  0  0
 22 21  1  0  0  0  0
 22 36  1  0  0  0  0
 23 20  1  0  0  0  0
 24  1  1  0  0  0  0
 25  1  1  0  0  0  0
 32 13  1  0  0  0  0
 33 16  1  0  0  0  0
 34 22  1  0  0  0  0
 35 22  1  0  0  0  0
 37 23  1  0  0  0  0
M  RAD  1  14   2
M  END
