40239263.xyz
 OpenBabel08132112123D
CC(n1c(S)nnc1N1CCCC(C1)(C)C)C
 39 40  0  0  0  0  0  0  0  0999 V2000
    3.3884   -1.0817    2.7687 C   0  0  0  0  0  0  0  0  0  0  0  0
    2.5145   -0.1257    1.9572 C   0  0  0  0  0  0  0  0  0  0  0  0
    1.1556   -0.0000    2.5073 N   0  0  0  0  0  0  0  0  0  0  0  0
   -0.0000   -0.0000    1.7647 C   0  0  0  0  0  0  0  0  0  0  0  0
    0.0000    0.0000    0.0000 S   0  0  0  0  0  0  0  0  0  0  0  0
   -1.0595    0.0184    2.5333 N   0  0  0  0  0  0  0  0  0  0  0  0
   -0.6141    0.0633    3.8309 N   0  0  0  0  0  0  0  0  0  0  0  0
    0.7000    0.0535    3.8243 C   0  0  0  0  0  0  0  0  0  0  0  0
    1.5377    0.0704    4.9209 N   0  0  0  0  0  0  0  0  0  0  0  0
    2.2729    1.3007    5.2336 C   0  0  0  0  0  0  0  0  0  0  0  0
    2.0843    1.7074    6.7041 C   0  0  0  0  0  0  0  0  0  0  0  0
    0.6697    1.3599    7.1651 C   0  0  0  0  0  0  0  0  0  0  0  0
    0.4464   -0.1732    7.2098 C   0  0  0  0  0  0  0  0  0  0  0  0
    1.2693   -0.8152    6.0495 C   0  0  0  0  0  0  0  0  0  0  0  0
   -1.0496   -0.4805    7.0604 C   0  0  0  0  0  0  0  0  0  0  0  0
    0.9549   -0.7481    8.5407 C   0  0  0  0  0  0  0  0  0  0  0  0
    3.1592    1.2442    1.7357 C   0  0  0  0  0  0  0  0  0  0  0  0
    2.8735   -2.0396    2.9325 H   0  0  0  0  0  0  0  0  0  0  0  0
    3.6538   -0.6653    3.7483 H   0  0  0  0  0  0  0  0  0  0  0  0
    4.3159   -1.2784    2.2098 H   0  0  0  0  0  0  0  0  0  0  0  0
    2.3628   -0.5889    0.9686 H   0  0  0  0  0  0  0  0  0  0  0  0
   -1.3490   -0.0766   -0.0487 H   0  0  0  0  0  0  0  0  0  0  0  0
    1.8870    2.1008    4.5828 H   0  0  0  0  0  0  0  0  0  0  0  0
    3.3528    1.1922    5.0071 H   0  0  0  0  0  0  0  0  0  0  0  0
    2.2909    2.7844    6.8077 H   0  0  0  0  0  0  0  0  0  0  0  0
    2.8230    1.1917    7.3401 H   0  0  0  0  0  0  0  0  0  0  0  0
   -0.0525    1.8092    6.4630 H   0  0  0  0  0  0  0  0  0  0  0  0
    0.4598    1.7925    8.1567 H   0  0  0  0  0  0  0  0  0  0  0  0
    2.2471   -1.1483    6.4429 H   0  0  0  0  0  0  0  0  0  0  0  0
    0.7609   -1.7123    5.6698 H   0  0  0  0  0  0  0  0  0  0  0  0
   -1.4078   -0.1823    6.0650 H   0  0  0  0  0  0  0  0  0  0  0  0
   -1.6320    0.0546    7.8290 H   0  0  0  0  0  0  0  0  0  0  0  0
   -1.2418   -1.5594    7.1860 H   0  0  0  0  0  0  0  0  0  0  0  0
    2.0041   -0.4701    8.7350 H   0  0  0  0  0  0  0  0  0  0  0  0
    0.3462   -0.3826    9.3829 H   0  0  0  0  0  0  0  0  0  0  0  0
    0.8978   -1.8494    8.5414 H   0  0  0  0  0  0  0  0  0  0  0  0
    2.5066    1.8866    1.1260 H   0  0  0  0  0  0  0  0  0  0  0  0
    3.3552    1.7521    2.6905 H   0  0  0  0  0  0  0  0  0  0  0  0
    4.1182    1.1284    1.2075 H   0  0  0  0  0  0  0  0  0  0  0  0
  1 18  1  0  0  0  0
  1 19  1  0  0  0  0
  2  3  1  0  0  0  0
  2  1  1  0  0  0  0
  3  8  1  0  0  0  0
  4  3  1  0  0  0  0
  4  6  2  0  0  0  0
  5  4  1  0  0  0  0
  6  7  1  0  0  0  0
  8  7  2  0  0  0  0
  8  9  1  0  0  0  0
  9 10  1  0  0  0  0
  9 14  1  0  0  0  0
 10 11  1  0  0  0  0
 11 25  1  0  0  0  0
 11 12  1  0  0  0  0
 11 26  1  0  0  0  0
 12 13  1  0  0  0  0
 12 28  1  0  0  0  0
 13 16  1  0  0  0  0
 14 29  1  0  0  0  0
 14 13  1  0  0  0  0
 15 33  1  0  0  0  0
 15 13  1  0  0  0  0
 15 32  1  0  0  0  0
 16 36  1  0  0  0  0
 16 34  1  0  0  0  0
 16 35  1  0  0  0  0
 17  2  1  0  0  0  0
 17 38  1  0  0  0  0
 20  1  1  0  0  0  0
 21  2  1  0  0  0  0
 22  5  1  0  0  0  0
 23 10  1  0  0  0  0
 24 10  1  0  0  0  0
 27 12  1  0  0  0  0
 30 14  1  0  0  0  0
 31 15  1  0  0  0  0
 37 17  1  0  0  0  0
 39 17  1  0  0  0  0
M  END
