4055227.xyz
 OpenBabel08132112133D
O=C(Nn1c(S)nc2c(c1=O)cc(s2)C)CSCc1ccccc1
 39 41  0  0  1  0  0  0  0  0999 V2000
   -2.4720   -1.9786    1.0376 O   0  0  0  0  0  0  0  0  0  0  0  0
   -3.0430   -0.9271    1.2522 C   0  0  0  0  0  0  0  0  0  0  0  0
   -2.4067    0.1681    1.7853 N   0  0  0  0  0  0  0  0  0  0  0  0
   -1.2123    0.0346    2.4558 N   0  0  0  0  0  0  0  0  0  0  0  0
    0.0000   -0.0000    1.7712 C   0  0  0  0  0  0  0  0  0  0  0  0
    0.0000    0.0000    0.0000 S   0  0  0  0  0  0  0  0  0  0  0  0
    1.1409    0.0000    2.3882 N   0  0  0  0  0  0  0  0  0  0  0  0
    1.1109    0.0181    3.7385 C   0  0  0  0  0  0  0  0  0  0  0  0
   -0.0356   -0.0284    4.5333 C   0  0  2  0  0  0  0  0  0  0  0  0
   -1.3222   -0.0349    3.8849 C   0  0  0  0  0  0  0  0  0  0  0  0
   -2.4236   -0.0546    4.4103 O   0  0  0  0  0  0  0  0  0  0  0  0
    0.2492   -0.0411    5.9340 C   0  0  0  0  0  0  0  0  0  0  0  0
    1.5916    0.0006    6.2024 C   0  0  0  0  0  0  0  0  0  0  0  0
    2.5497    0.0506    4.7249 S   0  0  0  0  0  0  0  0  0  0  0  0
    2.2703    0.0080    7.5352 C   0  0  0  0  0  0  0  0  0  0  0  0
   -4.4865   -0.6867    0.8314 C   0  0  0  0  0  0  0  0  0  0  0  0
   -5.4049    0.6461    1.6676 S   0  0  0  0  0  0  0  0  0  0  0  0
   -5.5580   -0.0431    3.3858 C   0  0  0  0  0  0  0  0  0  0  0  0
   -5.8987   -1.5054    3.4054 C   0  0  0  0  0  0  0  0  0  0  0  0
   -4.9307   -2.4385    3.8039 C   0  0  0  0  0  0  0  0  0  0  0  0
   -5.2155   -3.8072    3.7827 C   0  0  0  0  0  0  0  0  0  0  0  0
   -6.4688   -4.2567    3.3622 C   0  0  0  0  0  0  0  0  0  0  0  0
   -7.4397   -3.3311    2.9614 C   0  0  0  0  0  0  0  0  0  0  0  0
   -7.1549   -1.9658    2.9799 C   0  0  0  0  0  0  0  0  0  0  0  0
   -2.9966    0.9440    2.0906 H   0  0  0  0  0  0  0  0  0  0  0  0
   -0.9620   -0.9500   -0.1138 H   0  0  0  0  0  0  0  0  0  0  0  0
   -0.5231   -0.0758    6.7024 H   0  0  0  0  0  0  0  0  0  0  0  0
    2.8798    0.9157    7.6777 H   0  0  0  0  0  0  0  0  0  0  0  0
    1.5186   -0.0271    8.3367 H   0  0  0  0  0  0  0  0  0  0  0  0
    2.9400   -0.8594    7.6567 H   0  0  0  0  0  0  0  0  0  0  0  0
   -5.0099   -1.6482    0.9242 H   0  0  0  0  0  0  0  0  0  0  0  0
   -4.4839   -0.4156   -0.2369 H   0  0  0  0  0  0  0  0  0  0  0  0
   -4.6226    0.1453    3.9264 H   0  0  0  0  0  0  0  0  0  0  0  0
   -6.3578    0.5701    3.8276 H   0  0  0  0  0  0  0  0  0  0  0  0
   -3.9519   -2.0802    4.1308 H   0  0  0  0  0  0  0  0  0  0  0  0
   -4.4510   -4.5238    4.0920 H   0  0  0  0  0  0  0  0  0  0  0  0
   -6.6911   -5.3263    3.3436 H   0  0  0  0  0  0  0  0  0  0  0  0
   -8.4223   -3.6777    2.6318 H   0  0  0  0  0  0  0  0  0  0  0  0
   -7.9068   -1.2438    2.6500 H   0  0  0  0  0  0  0  0  0  0  0  0
  1  2  2  0  0  0  0
  2  3  1  0  0  0  0
  3 25  1  0  0  0  0
  3  4  1  0  0  0  0
  4 10  1  0  0  0  0
  5  7  2  0  0  0  0
  5  4  1  0  0  0  0
  6  5  1  0  0  0  0
  7  8  2  0  0  0  0
  8 14  1  0  0  0  0
  9  8  1  1  0  0  0
  9 12  1  0  0  0  0
 10 11  2  0  0  0  0
 10  9  1  0  0  0  0
 12 13  2  0  0  0  0
 12 27  1  0  0  0  0
 13 15  1  0  0  0  0
 14 13  1  0  0  0  0
 15 30  1  0  0  0  0
 15 28  1  0  0  0  0
 15 29  1  0  0  0  0
 16 31  1  0  0  0  0
 16  2  1  0  0  0  0
 16 17  1  0  0  0  0
 17 18  1  0  0  0  0
 18 19  1  0  0  0  0
 18 34  1  0  0  0  0
 18 33  1  0  0  0  0
 19 20  2  0  0  0  0
 20 35  1  0  0  0  0
 21 20  1  0  0  0  0
 21 36  1  0  0  0  0
 22 21  2  0  0  0  0
 23 24  2  0  0  0  0
 23 22  1  0  0  0  0
 24 19  1  0  0  0  0
 26  6  1  0  0  0  0
 32 16  1  0  0  0  0
 37 22  1  0  0  0  0
 38 23  1  0  0  0  0
 39 24  1  0  0  0  0
M  RAD  1   9   2
M  END
