4058227.xyz
 OpenBabel08132112133D
COc1ccccc1Cn1c(S)nc2c(c1=O)cc(s2)c1ccccc1
 42 45  0  0  1  0  0  0  0  0999 V2000
   -3.0335    0.7191   -2.4361 C   0  0  0  0  0  0  0  0  0  0  0  0
   -2.9862    0.5340   -1.0408 O   0  0  0  0  0  0  0  0  0  0  0  0
   -3.1049    1.6108   -0.2191 C   0  0  0  0  0  0  0  0  0  0  0  0
   -3.4379    2.8966   -0.6682 C   0  0  0  0  0  0  0  0  0  0  0  0
   -3.5584    3.9443    0.2487 C   0  0  0  0  0  0  0  0  0  0  0  0
   -3.3553    3.7210    1.6106 C   0  0  0  0  0  0  0  0  0  0  0  0
   -3.0198    2.4388    2.0523 C   0  0  0  0  0  0  0  0  0  0  0  0
   -2.8771    1.3771    1.1536 C   0  0  0  0  0  0  0  0  0  0  0  0
   -2.4833   -0.0000    1.6405 C   0  0  0  0  0  0  0  0  0  0  0  0
   -1.2221   -0.0040    2.4036 N   0  0  0  0  0  0  0  0  0  0  0  0
   -0.0000    0.0000    1.7762 C   0  0  0  0  0  0  0  0  0  0  0  0
    0.0000    0.0000    0.0000 S   0  0  0  0  0  0  0  0  0  0  0  0
    1.1491    0.0000    2.3938 N   0  0  0  0  0  0  0  0  0  0  0  0
    1.0970   -0.0026    3.7422 C   0  0  0  0  0  0  0  0  0  0  0  0
   -0.0690    0.0031    4.5083 C   0  0  2  0  0  0  0  0  0  0  0  0
   -1.3455    0.0189    3.8310 C   0  0  0  0  0  0  0  0  0  0  0  0
   -2.4460    0.0555    4.3567 O   0  0  0  0  0  0  0  0  0  0  0  0
    0.1796    0.0026    5.9112 C   0  0  0  0  0  0  0  0  0  0  0  0
    1.5204   -0.0057    6.2201 C   0  0  0  0  0  0  0  0  0  0  0  0
    2.5147   -0.0032    4.7569 S   0  0  0  0  0  0  0  0  0  0  0  0
    2.1499   -0.0101    7.5444 C   0  0  0  0  0  0  0  0  0  0  0  0
    3.4871   -0.4136    7.7230 C   0  0  0  0  0  0  0  0  0  0  0  0
    4.0710   -0.4196    8.9896 C   0  0  0  0  0  0  0  0  0  0  0  0
    3.3316   -0.0284   10.1088 C   0  0  0  0  0  0  0  0  0  0  0  0
    2.0022    0.3750    9.9465 C   0  0  0  0  0  0  0  0  0  0  0  0
    1.4190    0.3897    8.6810 C   0  0  0  0  0  0  0  0  0  0  0  0
   -4.0218    1.0828   -2.7690 H   0  0  0  0  0  0  0  0  0  0  0  0
   -2.8454   -0.2636   -2.8882 H   0  0  0  0  0  0  0  0  0  0  0  0
   -2.2587    1.4283   -2.7773 H   0  0  0  0  0  0  0  0  0  0  0  0
   -3.6061    3.0874   -1.7275 H   0  0  0  0  0  0  0  0  0  0  0  0
   -3.8191    4.9420   -0.1128 H   0  0  0  0  0  0  0  0  0  0  0  0
   -3.4601    4.5376    2.3277 H   0  0  0  0  0  0  0  0  0  0  0  0
   -2.8735    2.2447    3.1168 H   0  0  0  0  0  0  0  0  0  0  0  0
   -2.3884   -0.6955    0.7988 H   0  0  0  0  0  0  0  0  0  0  0  0
   -3.2400   -0.3863    2.3345 H   0  0  0  0  0  0  0  0  0  0  0  0
    1.3505   -0.0412   -0.0293 H   0  0  0  0  0  0  0  0  0  0  0  0
   -0.6196   -0.0138    6.6507 H   0  0  0  0  0  0  0  0  0  0  0  0
    4.0724   -0.7412    6.8605 H   0  0  0  0  0  0  0  0  0  0  0  0
    5.1098   -0.7388    9.1026 H   0  0  0  0  0  0  0  0  0  0  0  0
    3.7884   -0.0347   11.1010 H   0  0  0  0  0  0  0  0  0  0  0  0
    1.4165    0.6911   10.8131 H   0  0  0  0  0  0  0  0  0  0  0  0
    0.3889    0.7315    8.5667 H   0  0  0  0  0  0  0  0  0  0  0  0
  1  2  1  0  0  0  0
  2  3  1  0  0  0  0
  3  8  1  0  0  0  0
  4  3  2  0  0  0  0
  4  5  1  0  0  0  0
  5  6  2  0  0  0  0
  6  7  1  0  0  0  0
  6 32  1  0  0  0  0
  7 33  1  0  0  0  0
  8  9  1  0  0  0  0
  8  7  2  0  0  0  0
  9 35  1  0  0  0  0
  9 10  1  0  0  0  0
 10 16  1  0  0  0  0
 11 13  2  0  0  0  0
 11 10  1  0  0  0  0
 12 11  1  0  0  0  0
 13 14  2  0  0  0  0
 14 20  1  0  0  0  0
 15 14  1  6  0  0  0
 15 18  1  0  0  0  0
 16 17  2  0  0  0  0
 16 15  1  0  0  0  0
 18 19  2  0  0  0  0
 18 37  1  0  0  0  0
 19 21  1  0  0  0  0
 20 19  1  0  0  0  0
 21 22  2  0  0  0  0
 21 26  1  0  0  0  0
 22 23  1  0  0  0  0
 23 39  1  0  0  0  0
 23 24  2  0  0  0  0
 24 40  1  0  0  0  0
 25 24  1  0  0  0  0
 25 41  1  0  0  0  0
 26 25  2  0  0  0  0
 27  1  1  0  0  0  0
 28  1  1  0  0  0  0
 29  1  1  0  0  0  0
 30  4  1  0  0  0  0
 31  5  1  0  0  0  0
 34  9  1  0  0  0  0
 36 12  1  0  0  0  0
 38 22  1  0  0  0  0
 42 26  1  0  0  0  0
M  RAD  1  15   2
M  END
