40604928.xyz
 OpenBabel08132112133D
Brc1ccc(s1)Cn1c(N)nnc1S
 21 22  0  0  0  0  0  0  0  0999 V2000
    3.3891    5.5660    0.0424 Br  0  0  0  0  0  0  0  0  0  0  0  0
    3.2163    4.0113    1.0831 C   0  0  0  0  0  0  0  0  0  0  0  0
    3.3957    3.8986    2.4404 C   0  0  0  0  0  0  0  0  0  0  0  0
    3.1939    2.5617    2.8939 C   0  0  0  0  0  0  0  0  0  0  0  0
    2.8723    1.6858    1.8838 C   0  0  0  0  0  0  0  0  0  0  0  0
    2.7949    2.4984    0.3447 S   0  0  0  0  0  0  0  0  0  0  0  0
    2.5290    0.2293    2.0163 C   0  0  0  0  0  0  0  0  0  0  0  0
    1.1705    0.0000    2.4929 N   0  0  0  0  0  0  0  0  0  0  0  0
    0.7346   -0.0153    3.8021 C   0  0  0  0  0  0  0  0  0  0  0  0
    1.6100    0.0844    4.8776 N   0  0  0  0  0  0  0  0  0  0  0  0
   -0.5709   -0.0461    3.8520 N   0  0  0  0  0  0  0  0  0  0  0  0
   -1.0401   -0.0262    2.5506 N   0  0  0  0  0  0  0  0  0  0  0  0
   -0.0000    0.0000    1.7617 C   0  0  0  0  0  0  0  0  0  0  0  0
    0.0000    0.0000    0.0000 S   0  0  0  0  0  0  0  0  0  0  0  0
    3.6620    4.7395    3.0800 H   0  0  0  0  0  0  0  0  0  0  0  0
    3.2572    2.2480    3.9368 H   0  0  0  0  0  0  0  0  0  0  0  0
    3.2189   -0.2430    2.7290 H   0  0  0  0  0  0  0  0  0  0  0  0
    2.6480   -0.2994    1.0589 H   0  0  0  0  0  0  0  0  0  0  0  0
    1.0777    0.1807    5.7402 H   0  0  0  0  0  0  0  0  0  0  0  0
    2.2419   -0.7119    4.9629 H   0  0  0  0  0  0  0  0  0  0  0  0
   -1.3344   -0.2078   -0.0580 H   0  0  0  0  0  0  0  0  0  0  0  0
  1  2  1  0  0  0  0
  2  3  2  0  0  0  0
  3  4  1  0  0  0  0
  3 15  1  0  0  0  0
  4 16  1  0  0  0  0
  5  7  1  0  0  0  0
  5  4  2  0  0  0  0
  6  2  1  0  0  0  0
  6  5  1  0  0  0  0
  7  8  1  0  0  0  0
  7 17  1  0  0  0  0
  8  9  1  0  0  0  0
  9 11  2  0  0  0  0
  9 10  1  0  0  0  0
 10 20  1  0  0  0  0
 10 19  1  0  0  0  0
 12 11  1  0  0  0  0
 13  8  1  0  0  0  0
 13 12  2  0  0  0  0
 14 13  1  0  0  0  0
 18  7  1  0  0  0  0
 21 14  1  0  0  0  0
M  END
