40825341.xyz
 OpenBabel08132112133D
CCOCCCn1c(S)ncc1C(C)C
 35 35  0  0  1  0  0  0  0  0999 V2000
   -0.4596    3.5853    0.9301 C   0  0  0  0  0  0  0  0  0  0  0  0
    0.8335    3.4411    0.1349 C   0  0  0  0  0  0  0  0  0  0  0  0
    1.6969    2.4157    0.5935 O   0  0  0  0  0  0  0  0  0  0  0  0
    2.2424    2.6074    1.8748 C   0  0  0  0  0  0  0  0  0  0  0  0
    3.1776    1.4485    2.1824 C   0  0  0  0  0  0  0  0  0  0  0  0
    2.5152    0.0754    1.9943 C   0  0  0  0  0  0  0  0  0  0  0  0
    1.1608    0.0000    2.5191 N   0  0  0  0  0  0  0  0  0  0  0  0
    0.0000    0.0000    1.7730 C   0  0  0  0  0  0  0  0  0  0  0  0
    0.0000    0.0000    0.0000 S   0  0  0  0  0  0  0  0  0  0  0  0
   -1.0700   -0.0278    2.5345 N   0  0  0  0  0  0  0  0  0  0  0  0
   -0.6050   -0.0573    3.8259 C   0  0  0  0  0  0  0  0  0  0  0  0
    0.7754   -0.0301    3.8559 C   0  0  2  0  0  0  0  0  0  0  0  0
    1.7355   -0.0105    5.0156 C   0  0  0  0  0  0  0  0  0  0  0  0
    1.3770   -1.0909    6.0472 C   0  0  0  0  0  0  0  0  0  0  0  0
    1.7988    1.3767    5.6802 C   0  0  0  0  0  0  0  0  0  0  0  0
   -0.2821    3.9357    1.9586 H   0  0  0  0  0  0  0  0  0  0  0  0
   -1.1114    4.3259    0.4397 H   0  0  0  0  0  0  0  0  0  0  0  0
   -0.9981    2.6275    0.9806 H   0  0  0  0  0  0  0  0  0  0  0  0
    1.3824    4.4057    0.1173 H   0  0  0  0  0  0  0  0  0  0  0  0
    0.6018    3.1736   -0.9071 H   0  0  0  0  0  0  0  0  0  0  0  0
    2.7963    3.5677    1.9288 H   0  0  0  0  0  0  0  0  0  0  0  0
    1.4460    2.6490    2.6414 H   0  0  0  0  0  0  0  0  0  0  0  0
    4.0590    1.4918    1.5220 H   0  0  0  0  0  0  0  0  0  0  0  0
    3.5441    1.5659    3.2145 H   0  0  0  0  0  0  0  0  0  0  0  0
    3.1275   -0.7107    2.4632 H   0  0  0  0  0  0  0  0  0  0  0  0
    2.4435   -0.1587    0.9248 H   0  0  0  0  0  0  0  0  0  0  0  0
   -0.9495   -0.9615   -0.0841 H   0  0  0  0  0  0  0  0  0  0  0  0
   -1.2869   -0.0971    4.6743 H   0  0  0  0  0  0  0  0  0  0  0  0
    2.7413   -0.2452    4.6285 H   0  0  0  0  0  0  0  0  0  0  0  0
    2.1040   -1.0975    6.8749 H   0  0  0  0  0  0  0  0  0  0  0  0
    0.3810   -0.9050    6.4796 H   0  0  0  0  0  0  0  0  0  0  0  0
    1.3612   -2.0909    5.5886 H   0  0  0  0  0  0  0  0  0  0  0  0
    2.5392    1.3903    6.4966 H   0  0  0  0  0  0  0  0  0  0  0  0
    2.0700    2.1611    4.9582 H   0  0  0  0  0  0  0  0  0  0  0  0
    0.8171    1.6424    6.1034 H   0  0  0  0  0  0  0  0  0  0  0  0
  1 18  1  0  0  0  0
  1 16  1  0  0  0  0
  2  3  1  0  0  0  0
  2  1  1  0  0  0  0
  3  4  1  0  0  0  0
  4 21  1  0  0  0  0
  4  5  1  0  0  0  0
  4 22  1  0  0  0  0
  5 24  1  0  0  0  0
  6  5  1  0  0  0  0
  6 25  1  0  0  0  0
  6  7  1  0  0  0  0
  7 12  1  0  0  0  0
  8  7  1  0  0  0  0
  8 10  2  0  0  0  0
  9  8  1  0  0  0  0
 10 11  2  0  0  0  0
 11 12  1  0  0  0  0
 11 28  1  0  0  0  0
 12 13  1  1  0  0  0
 13 15  1  0  0  0  0
 13 14  1  0  0  0  0
 14 31  1  0  0  0  0
 14 30  1  0  0  0  0
 15 35  1  0  0  0  0
 15 33  1  0  0  0  0
 17  1  1  0  0  0  0
 19  2  1  0  0  0  0
 20  2  1  0  0  0  0
 23  5  1  0  0  0  0
 26  6  1  0  0  0  0
 27  9  1  0  0  0  0
 29 13  1  0  0  0  0
 32 14  1  0  0  0  0
 34 15  1  0  0  0  0
M  RAD  1  12   2
M  END
