4101684.xyz
 OpenBabel08132112133D
Cc1ccc(c(c1)OCc1ccc(o1)c1nnc(n1c1cccc(c1)C)S)C(C)C
 55 58  0  0  0  0  0  0  0  0999 V2000
  -10.1093   -0.9408    5.9056 C   0  0  0  0  0  0  0  0  0  0  0  0
   -9.0896   -0.6898    6.9876 C   0  0  0  0  0  0  0  0  0  0  0  0
   -9.4560   -0.5698    8.3287 C   0  0  0  0  0  0  0  0  0  0  0  0
   -8.4829   -0.3377    9.3075 C   0  0  0  0  0  0  0  0  0  0  0  0
   -7.1261   -0.2166    9.0022 C   0  0  0  0  0  0  0  0  0  0  0  0
   -6.7640   -0.3395    7.6396 C   0  0  0  0  0  0  0  0  0  0  0  0
   -7.7291   -0.5714    6.6554 C   0  0  0  0  0  0  0  0  0  0  0  0
   -5.4338   -0.2178    7.3548 O   0  0  0  0  0  0  0  0  0  0  0  0
   -4.9950   -0.3292    6.0263 C   0  0  0  0  0  0  0  0  0  0  0  0
   -3.5159   -0.1482    6.0202 C   0  0  0  0  0  0  0  0  0  0  0  0
   -2.5714    0.0510    6.9901 C   0  0  0  0  0  0  0  0  0  0  0  0
   -1.3144    0.1555    6.3094 C   0  0  0  0  0  0  0  0  0  0  0  0
   -1.5872    0.0119    4.9722 C   0  0  0  0  0  0  0  0  0  0  0  0
   -2.9298   -0.1767    4.7957 O   0  0  0  0  0  0  0  0  0  0  0  0
   -0.7319    0.0134    3.8076 C   0  0  0  0  0  0  0  0  0  0  0  0
    0.5838    0.0044    3.8395 N   0  0  0  0  0  0  0  0  0  0  0  0
    1.0447    0.0000    2.5516 N   0  0  0  0  0  0  0  0  0  0  0  0
    0.0000    0.0000    1.7582 C   0  0  0  0  0  0  0  0  0  0  0  0
   -1.1678    0.0117    2.4883 N   0  0  0  0  0  0  0  0  0  0  0  0
   -2.4950    0.0659    1.9617 C   0  0  0  0  0  0  0  0  0  0  0  0
   -3.2323    1.2494    2.0601 C   0  0  0  0  0  0  0  0  0  0  0  0
   -4.5280    1.2792    1.5487 C   0  0  0  0  0  0  0  0  0  0  0  0
   -5.0716    0.1456    0.9358 C   0  0  0  0  0  0  0  0  0  0  0  0
   -4.3326   -1.0400    0.8203 C   0  0  0  0  0  0  0  0  0  0  0  0
   -3.0341   -1.0661    1.3505 C   0  0  0  0  0  0  0  0  0  0  0  0
   -4.8995   -2.2580    0.1371 C   0  0  0  0  0  0  0  0  0  0  0  0
    0.0000    0.0000    0.0000 S   0  0  0  0  0  0  0  0  0  0  0  0
   -6.1081    0.0353   10.1035 C   0  0  0  0  0  0  0  0  0  0  0  0
   -5.1088   -1.1232   10.2568 C   0  0  0  0  0  0  0  0  0  0  0  0
   -5.3961    1.3895    9.9496 C   0  0  0  0  0  0  0  0  0  0  0  0
   -9.9037   -1.8846    5.3731 H   0  0  0  0  0  0  0  0  0  0  0  0
  -11.1265   -1.0021    6.3183 H   0  0  0  0  0  0  0  0  0  0  0  0
  -10.0989   -0.1366    5.1510 H   0  0  0  0  0  0  0  0  0  0  0  0
  -10.5064   -0.6573    8.6163 H   0  0  0  0  0  0  0  0  0  0  0  0
   -8.7886   -0.2464   10.3535 H   0  0  0  0  0  0  0  0  0  0  0  0
   -7.4375   -0.6641    5.6089 H   0  0  0  0  0  0  0  0  0  0  0  0
   -5.4687    0.4351    5.3785 H   0  0  0  0  0  0  0  0  0  0  0  0
   -5.2592   -1.3170    5.5985 H   0  0  0  0  0  0  0  0  0  0  0  0
   -2.7576    0.1179    8.0580 H   0  0  0  0  0  0  0  0  0  0  0  0
   -0.3286    0.3171    6.7369 H   0  0  0  0  0  0  0  0  0  0  0  0
   -2.7898    2.1230    2.5411 H   0  0  0  0  0  0  0  0  0  0  0  0
   -5.1198    2.1943    1.6232 H   0  0  0  0  0  0  0  0  0  0  0  0
   -6.0882    0.1832    0.5361 H   0  0  0  0  0  0  0  0  0  0  0  0
   -2.4318   -1.9754    1.2938 H   0  0  0  0  0  0  0  0  0  0  0  0
   -4.7115   -3.1711    0.7232 H   0  0  0  0  0  0  0  0  0  0  0  0
   -5.9843   -2.1663   -0.0172 H   0  0  0  0  0  0  0  0  0  0  0  0
   -4.4326   -2.4065   -0.8514 H   0  0  0  0  0  0  0  0  0  0  0  0
    1.3516    0.0198   -0.0455 H   0  0  0  0  0  0  0  0  0  0  0  0
   -6.6898    0.0833   11.0399 H   0  0  0  0  0  0  0  0  0  0  0  0
   -5.6339   -2.0758   10.4284 H   0  0  0  0  0  0  0  0  0  0  0  0
   -4.4895   -1.2361    9.3561 H   0  0  0  0  0  0  0  0  0  0  0  0
   -4.4407   -0.9439   11.1150 H   0  0  0  0  0  0  0  0  0  0  0  0
   -4.7895    1.4182    9.0337 H   0  0  0  0  0  0  0  0  0  0  0  0
   -6.1247    2.2137    9.9000 H   0  0  0  0  0  0  0  0  0  0  0  0
   -4.7319    1.5743   10.8096 H   0  0  0  0  0  0  0  0  0  0  0  0
  1 32  1  0  0  0  0
  1  2  1  0  0  0  0
  2  3  1  0  0  0  0
  3 34  1  0  0  0  0
  3  4  2  0  0  0  0
  4 35  1  0  0  0  0
  5  4  1  0  0  0  0
  5 28  1  0  0  0  0
  6  5  2  0  0  0  0
  7  2  2  0  0  0  0
  7  6  1  0  0  0  0
  8  6  1  0  0  0  0
  9  8  1  0  0  0  0
 10  9  1  0  0  0  0
 10 11  2  0  0  0  0
 11 39  1  0  0  0  0
 12 40  1  0  0  0  0
 12 11  1  0  0  0  0
 13 12  2  0  0  0  0
 14 13  1  0  0  0  0
 14 10  1  0  0  0  0
 15 16  2  0  0  0  0
 15 13  1  0  0  0  0
 17 16  1  0  0  0  0
 18 19  1  0  0  0  0
 18 17  2  0  0  0  0
 19 15  1  0  0  0  0
 20 21  1  0  0  0  0
 20 19  1  0  0  0  0
 21 41  1  0  0  0  0
 22 42  1  0  0  0  0
 22 21  2  0  0  0  0
 23 22  1  0  0  0  0
 24 23  2  0  0  0  0
 24 25  1  0  0  0  0
 25 20  2  0  0  0  0
 26 45  1  0  0  0  0
 26 24  1  0  0  0  0
 27 18  1  0  0  0  0
 28 29  1  0  0  0  0
 28 49  1  0  0  0  0
 29 50  1  0  0  0  0
 29 52  1  0  0  0  0
 30 28  1  0  0  0  0
 30 55  1  0  0  0  0
 31  1  1  0  0  0  0
 33  1  1  0  0  0  0
 36  7  1  0  0  0  0
 37  9  1  0  0  0  0
 38  9  1  0  0  0  0
 43 23  1  0  0  0  0
 44 25  1  0  0  0  0
 46 26  1  0  0  0  0
 47 26  1  0  0  0  0
 48 27  1  0  0  0  0
 51 29  1  0  0  0  0
 53 30  1  0  0  0  0
 54 30  1  0  0  0  0
M  END
