41383470.xyz
 OpenBabel08132112133D
SCC(=O)N1CCCC(C1)C(F)(F)F
 26 26  0  0  1  0  0  0  0  0999 V2000
    0.0000    0.0000    0.0000 S   0  0  0  0  0  0  0  0  0  0  0  0
   -0.0000    0.0000    1.8407 C   0  0  0  0  0  0  0  0  0  0  0  0
    1.4166    0.0000    2.4026 C   0  0  0  0  0  0  0  0  0  0  0  0
    1.9196   -1.0559    2.7548 O   0  0  0  0  0  0  0  0  0  0  0  0
    2.0917    1.1941    2.4658 N   0  0  0  0  0  0  0  0  0  0  0  0
    3.5003    1.1847    2.8532 C   0  0  0  0  0  0  0  0  0  0  0  0
    4.3866    1.4762    1.6400 C   0  0  0  0  0  0  0  0  0  0  0  0
    3.9794    2.7868    0.9603 C   0  0  0  0  0  0  0  0  0  0  0  0
    2.4789    2.7886    0.6358 C   0  0  1  0  0  0  0  0  0  0  0  0
    1.6470    2.4483    1.8860 C   0  0  0  0  0  0  0  0  0  0  0  0
    2.0315    4.1054    0.0351 C   0  0  0  0  0  0  0  0  0  0  0  0
    2.7031    4.3903   -1.0931 F   0  0  0  0  0  0  0  0  0  0  0  0
    2.2219    5.1369    0.8844 F   0  0  0  0  0  0  0  0  0  0  0  0
    0.7199    4.0869   -0.2714 F   0  0  0  0  0  0  0  0  0  0  0  0
    0.7431   -1.1248   -0.1202 H   0  0  0  0  0  0  0  0  0  0  0  0
   -0.5982    0.8707    2.1404 H   0  0  0  0  0  0  0  0  0  0  0  0
   -0.4905   -0.9082    2.2108 H   0  0  0  0  0  0  0  0  0  0  0  0
    3.6545    1.9562    3.6292 H   0  0  0  0  0  0  0  0  0  0  0  0
    3.7186    0.2027    3.2871 H   0  0  0  0  0  0  0  0  0  0  0  0
    5.4425    1.5210    1.9511 H   0  0  0  0  0  0  0  0  0  0  0  0
    4.2944    0.6391    0.9273 H   0  0  0  0  0  0  0  0  0  0  0  0
    4.1968    3.6356    1.6318 H   0  0  0  0  0  0  0  0  0  0  0  0
    4.5607    2.9508    0.0406 H   0  0  0  0  0  0  0  0  0  0  0  0
    2.2578    2.0195   -0.1220 H   0  0  0  0  0  0  0  0  0  0  0  0
    0.5867    2.4043    1.6231 H   0  0  0  0  0  0  0  0  0  0  0  0
    1.7685    3.2528    2.6328 H   0  0  0  0  0  0  0  0  0  0  0  0
  1  2  1  0  0  0  0
  2 16  1  0  0  0  0
  2 17  1  0  0  0  0
  2  3  1  0  0  0  0
  3  5  1  0  0  0  0
  3  4  2  0  0  0  0
  5  6  1  0  0  0  0
  6 19  1  0  0  0  0
  6 18  1  0  0  0  0
  7 20  1  0  0  0  0
  7  6  1  0  0  0  0
  8 22  1  0  0  0  0
  8  7  1  0  0  0  0
  9 24  1  6  0  0  0
  9  8  1  0  0  0  0
  9 10  1  0  0  0  0
 10  5  1  0  0  0  0
 10 26  1  0  0  0  0
 11  9  1  0  0  0  0
 11 13  1  0  0  0  0
 12 11  1  0  0  0  0
 14 11  1  0  0  0  0
 15  1  1  0  0  0  0
 21  7  1  0  0  0  0
 23  8  1  0  0  0  0
 25 10  1  0  0  0  0
M  END
