41383164.xyz
 OpenBabel08132112133D
SCC(=O)N1CCC(C1)N1CCCC1
 32 33  0  0  1  0  0  0  0  0999 V2000
    0.0000    0.0000    0.0000 S   0  0  0  0  0  0  0  0  0  0  0  0
    0.0000   -0.0000    1.8245 C   0  0  0  0  0  0  0  0  0  0  0  0
    1.4152   -0.0000    2.4169 C   0  0  0  0  0  0  0  0  0  0  0  0
    2.4190    0.1948    1.7459 O   0  0  0  0  0  0  0  0  0  0  0  0
    1.4819   -0.2101    3.7573 N   0  0  0  0  0  0  0  0  0  0  0  0
    2.7773   -0.2464    4.4428 C   0  0  0  0  0  0  0  0  0  0  0  0
    2.4321   -0.8294    5.8124 C   0  0  0  0  0  0  0  0  0  0  0  0
    0.9970   -0.3433    6.0600 C   0  0  1  0  0  0  0  0  0  0  0  0
    0.3628   -0.4490    4.6628 C   0  0  0  0  0  0  0  0  0  0  0  0
    0.2774   -1.1049    7.0521 N   0  0  0  0  0  0  0  0  0  0  0  0
    0.8795   -1.1161    8.3812 C   0  0  0  0  0  0  0  0  0  0  0  0
   -0.2035   -1.7459    9.2723 C   0  0  0  0  0  0  0  0  0  0  0  0
   -1.5327   -1.4627    8.5226 C   0  0  0  0  0  0  0  0  0  0  0  0
   -1.1024   -0.6830    7.2706 C   0  0  0  0  0  0  0  0  0  0  0  0
    1.3237    0.2954   -0.0629 H   0  0  0  0  0  0  0  0  0  0  0  0
   -0.5529   -0.8822    2.1805 H   0  0  0  0  0  0  0  0  0  0  0  0
   -0.5330    0.8866    2.2087 H   0  0  0  0  0  0  0  0  0  0  0  0
    3.4956   -0.8487    3.8687 H   0  0  0  0  0  0  0  0  0  0  0  0
    3.1987    0.7717    4.5186 H   0  0  0  0  0  0  0  0  0  0  0  0
    3.1379   -0.5146    6.5933 H   0  0  0  0  0  0  0  0  0  0  0  0
    2.4228   -1.9311    5.7776 H   0  0  0  0  0  0  0  0  0  0  0  0
    1.0378    0.7378    6.3409 H   0  0  0  0  0  0  0  0  0  0  0  0
   -0.4447    0.2831    4.5125 H   0  0  0  0  0  0  0  0  0  0  0  0
   -0.0623   -1.4620    4.5363 H   0  0  0  0  0  0  0  0  0  0  0  0
    1.8237   -1.6805    8.3871 H   0  0  0  0  0  0  0  0  0  0  0  0
    1.1097   -0.0803    8.7248 H   0  0  0  0  0  0  0  0  0  0  0  0
   -0.1875   -1.3191   10.2856 H   0  0  0  0  0  0  0  0  0  0  0  0
   -0.0386   -2.8286    9.3701 H   0  0  0  0  0  0  0  0  0  0  0  0
   -2.2500   -0.8894    9.1275 H   0  0  0  0  0  0  0  0  0  0  0  0
   -2.0230   -2.4047    8.2374 H   0  0  0  0  0  0  0  0  0  0  0  0
   -1.7316   -0.8983    6.3933 H   0  0  0  0  0  0  0  0  0  0  0  0
   -1.1598    0.4151    7.4584 H   0  0  0  0  0  0  0  0  0  0  0  0
  1  2  1  0  0  0  0
  2 16  1  0  0  0  0
  2 17  1  0  0  0  0
  2  3  1  0  0  0  0
  3  5  1  0  0  0  0
  4  3  2  0  0  0  0
  5  6  1  0  0  0  0
  5  9  1  0  0  0  0
  6 19  1  0  0  0  0
  6  7  1  0  0  0  0
  7  8  1  0  0  0  0
  7 20  1  0  0  0  0
  8 22  1  1  0  0  0
  8 10  1  0  0  0  0
  9  8  1  0  0  0  0
 10 14  1  0  0  0  0
 10 11  1  0  0  0  0
 11 25  1  0  0  0  0
 11 26  1  0  0  0  0
 11 12  1  0  0  0  0
 12 28  1  0  0  0  0
 12 27  1  0  0  0  0
 13 29  1  0  0  0  0
 13 12  1  0  0  0  0
 14 32  1  0  0  0  0
 14 13  1  0  0  0  0
 15  1  1  0  0  0  0
 18  6  1  0  0  0  0
 21  7  1  0  0  0  0
 23  9  1  0  0  0  0
 24  9  1  0  0  0  0
 30 13  1  0  0  0  0
 31 14  1  0  0  0  0
M  END
