41383166.xyz
 OpenBabel08132112133D
SCC(=O)N1CCC(C1)N1CCCCC1
 35 36  0  0  1  0  0  0  0  0999 V2000
    0.0000    0.0000    0.0000 S   0  0  0  0  0  0  0  0  0  0  0  0
    0.0000    0.0000    1.8496 C   0  0  0  0  0  0  0  0  0  0  0  0
    1.4463    0.0000    2.3401 C   0  0  0  0  0  0  0  0  0  0  0  0
    2.0073   -1.0521    2.6001 O   0  0  0  0  0  0  0  0  0  0  0  0
    2.0558    1.2195    2.4585 N   0  0  0  0  0  0  0  0  0  0  0  0
    1.5471    2.4714    1.8739 C   0  0  0  0  0  0  0  0  0  0  0  0
    2.8195    3.1980    1.3939 C   0  0  0  0  0  0  0  0  0  0  0  0
    3.8494    2.0678    1.2335 C   0  0  1  0  0  0  0  0  0  0  0  0
    3.5164    1.2590    2.5016 C   0  0  0  0  0  0  0  0  0  0  0  0
    3.6001    1.2402    0.0637 N   0  0  0  0  0  0  0  0  0  0  0  0
    3.2530    1.9174   -1.1803 C   0  0  0  0  0  0  0  0  0  0  0  0
    3.1465    0.9048   -2.3189 C   0  0  0  0  0  0  0  0  0  0  0  0
    4.5028    0.2356   -2.6153 C   0  0  0  0  0  0  0  0  0  0  0  0
    5.3817    0.2126   -1.3524 C   0  0  0  0  0  0  0  0  0  0  0  0
    4.5256    0.1062   -0.0886 C   0  0  0  0  0  0  0  0  0  0  0  0
   -1.3467   -0.0321   -0.1353 H   0  0  0  0  0  0  0  0  0  0  0  0
   -0.5649    0.8668    2.2196 H   0  0  0  0  0  0  0  0  0  0  0  0
   -0.4564   -0.9292    2.2101 H   0  0  0  0  0  0  0  0  0  0  0  0
    0.8753    2.2596    1.0311 H   0  0  0  0  0  0  0  0  0  0  0  0
    0.9931    3.0667    2.6191 H   0  0  0  0  0  0  0  0  0  0  0  0
    2.6496    3.7941    0.4889 H   0  0  0  0  0  0  0  0  0  0  0  0
    3.1888    3.8858    2.1695 H   0  0  0  0  0  0  0  0  0  0  0  0
    4.8873    2.4683    1.2633 H   0  0  0  0  0  0  0  0  0  0  0  0
    3.8975    0.2333    2.5162 H   0  0  0  0  0  0  0  0  0  0  0  0
    3.8790    1.7832    3.4030 H   0  0  0  0  0  0  0  0  0  0  0  0
    3.9873    2.7098   -1.4581 H   0  0  0  0  0  0  0  0  0  0  0  0
    2.2793    2.4177   -1.0657 H   0  0  0  0  0  0  0  0  0  0  0  0
    2.4041    0.1483   -2.0186 H   0  0  0  0  0  0  0  0  0  0  0  0
    2.7473    1.4012   -3.2172 H   0  0  0  0  0  0  0  0  0  0  0  0
    5.0289    0.7704   -3.4232 H   0  0  0  0  0  0  0  0  0  0  0  0
    4.3353   -0.7905   -2.9813 H   0  0  0  0  0  0  0  0  0  0  0  0
    6.1023   -0.6202   -1.3879 H   0  0  0  0  0  0  0  0  0  0  0  0
    5.9792    1.1380   -1.2924 H   0  0  0  0  0  0  0  0  0  0  0  0
    3.9649   -0.8469   -0.0938 H   0  0  0  0  0  0  0  0  0  0  0  0
    5.1857    0.0622    0.7903 H   0  0  0  0  0  0  0  0  0  0  0  0
  1  2  1  0  0  0  0
  2 18  1  0  0  0  0
  2 17  1  0  0  0  0
  2  3  1  0  0  0  0
  3  5  1  0  0  0  0
  3  4  2  0  0  0  0
  5  9  1  0  0  0  0
  6  5  1  0  0  0  0
  6 20  1  0  0  0  0
  7  6  1  0  0  0  0
  7 22  1  0  0  0  0
  8 23  1  1  0  0  0
  8  7  1  0  0  0  0
  8  9  1  0  0  0  0
  9 24  1  0  0  0  0
  9 25  1  0  0  0  0
 10  8  1  0  0  0  0
 11 27  1  0  0  0  0
 11 10  1  0  0  0  0
 12 28  1  0  0  0  0
 12 11  1  0  0  0  0
 13 12  1  0  0  0  0
 13 14  1  0  0  0  0
 14 33  1  0  0  0  0
 14 15  1  0  0  0  0
 15 10  1  0  0  0  0
 15 35  1  0  0  0  0
 16  1  1  0  0  0  0
 19  6  1  0  0  0  0
 21  7  1  0  0  0  0
 26 11  1  0  0  0  0
 29 12  1  0  0  0  0
 30 13  1  0  0  0  0
 31 13  1  0  0  0  0
 32 14  1  0  0  0  0
 34 15  1  0  0  0  0
M  END
