41382174.xyz
 OpenBabel08132112133D
SCC(=O)NCC(=O)NC
 20 19  0  0  0  0  0  0  0  0999 V2000
    0.0000    0.0000    0.0000 S   0  0  0  0  0  0  0  0  0  0  0  0
   -0.0000   -0.0000    1.8297 C   0  0  0  0  0  0  0  0  0  0  0  0
    1.4192    0.0000    2.3913 C   0  0  0  0  0  0  0  0  0  0  0  0
    2.2844   -0.7542    1.9716 O   0  0  0  0  0  0  0  0  0  0  0  0
    1.6388    0.8680    3.4072 N   0  0  0  0  0  0  0  0  0  0  0  0
    2.9158    0.9623    4.0584 C   0  0  0  0  0  0  0  0  0  0  0  0
    2.8415    2.0657    5.1144 C   0  0  0  0  0  0  0  0  0  0  0  0
    1.8095    2.6912    5.3076 O   0  0  0  0  0  0  0  0  0  0  0  0
    3.9949    2.2767    5.7982 N   0  0  0  0  0  0  0  0  0  0  0  0
    4.1226    3.2773    6.8378 C   0  0  0  0  0  0  0  0  0  0  0  0
    1.0050   -0.9039   -0.0830 H   0  0  0  0  0  0  0  0  0  0  0  0
   -0.5707    0.8822    2.1524 H   0  0  0  0  0  0  0  0  0  0  0  0
   -0.5164   -0.8969    2.2090 H   0  0  0  0  0  0  0  0  0  0  0  0
    0.9330    1.5166    3.7485 H   0  0  0  0  0  0  0  0  0  0  0  0
    3.7178    1.1853    3.3312 H   0  0  0  0  0  0  0  0  0  0  0  0
    3.1966    0.0052    4.5356 H   0  0  0  0  0  0  0  0  0  0  0  0
    4.8022    1.7110    5.5645 H   0  0  0  0  0  0  0  0  0  0  0  0
    4.3888    2.8210    7.8056 H   0  0  0  0  0  0  0  0  0  0  0  0
    4.8866    4.0296    6.5812 H   0  0  0  0  0  0  0  0  0  0  0  0
    3.1517    3.7788    6.9379 H   0  0  0  0  0  0  0  0  0  0  0  0
  1  2  1  0  0  0  0
  2 12  1  0  0  0  0
  2 13  1  0  0  0  0
  2  3  1  0  0  0  0
  3  5  1  0  0  0  0
  4  3  2  0  0  0  0
  5 14  1  0  0  0  0
  5  6  1  0  0  0  0
  6 16  1  0  0  0  0
  6  7  1  0  0  0  0
  7  8  2  0  0  0  0
  7  9  1  0  0  0  0
  9 10  1  0  0  0  0
 10 20  1  0  0  0  0
 10 18  1  0  0  0  0
 11  1  1  0  0  0  0
 15  6  1  0  0  0  0
 17  9  1  0  0  0  0
 19 10  1  0  0  0  0
M  END
