41382784.xyz
 OpenBabel08132112133D
CC1N(CCc2c1ccs2)C(=O)CS
 27 28  0  0  1  0  0  0  0  0999 V2000
    0.1882   -2.4824    4.2115 C   0  0  0  0  0  0  0  0  0  0  0  0
    0.4706   -0.9964    4.4976 C   0  0  2  0  0  0  0  0  0  0  0  0
    1.5906   -0.4892    3.6760 N   0  0  0  0  0  0  0  0  0  0  0  0
    2.9488   -0.3377    4.2231 C   0  0  0  0  0  0  0  0  0  0  0  0
    3.1816   -1.1423    5.5038 C   0  0  0  0  0  0  0  0  0  0  0  0
    2.0365   -0.9062    6.4343 C   0  0  0  0  0  0  0  0  0  0  0  0
    0.7528   -0.7885    5.9643 C   0  0  0  0  0  0  0  0  0  0  0  0
   -0.2005   -0.5575    7.0054 C   0  0  0  0  0  0  0  0  0  0  0  0
    0.3858   -0.4972    8.2447 C   0  0  0  0  0  0  0  0  0  0  0  0
    2.1044   -0.7198    8.1555 S   0  0  0  0  0  0  0  0  0  0  0  0
    1.4193   -0.0000    2.4094 C   0  0  0  0  0  0  0  0  0  0  0  0
    2.3540    0.4765    1.7807 O   0  0  0  0  0  0  0  0  0  0  0  0
   -0.0000   -0.0000    1.8255 C   0  0  0  0  0  0  0  0  0  0  0  0
    0.0000    0.0000    0.0000 S   0  0  0  0  0  0  0  0  0  0  0  0
   -0.0056   -2.6585    3.1427 H   0  0  0  0  0  0  0  0  0  0  0  0
    1.0510   -3.0977    4.5063 H   0  0  0  0  0  0  0  0  0  0  0  0
   -0.6854   -2.8232    4.7879 H   0  0  0  0  0  0  0  0  0  0  0  0
   -0.4257   -0.4113    4.2458 H   0  0  0  0  0  0  0  0  0  0  0  0
    3.6613   -0.6303    3.4402 H   0  0  0  0  0  0  0  0  0  0  0  0
    3.1339    0.7311    4.4283 H   0  0  0  0  0  0  0  0  0  0  0  0
    4.1420   -0.8357    5.9437 H   0  0  0  0  0  0  0  0  0  0  0  0
    3.2707   -2.2184    5.2688 H   0  0  0  0  0  0  0  0  0  0  0  0
   -1.2724   -0.4354    6.8403 H   0  0  0  0  0  0  0  0  0  0  0  0
   -0.0918   -0.3226    9.2073 H   0  0  0  0  0  0  0  0  0  0  0  0
   -0.5159    0.8968    2.2118 H   0  0  0  0  0  0  0  0  0  0  0  0
   -0.5851   -0.8715    2.1387 H   0  0  0  0  0  0  0  0  0  0  0  0
    1.1809    0.6599   -0.0788 H   0  0  0  0  0  0  0  0  0  0  0  0
  1  2  1  0  0  0  0
  1 16  1  0  0  0  0
  1 17  1  0  0  0  0
  2 18  1  6  0  0  0
  2  7  1  0  0  0  0
  3  4  1  0  0  0  0
  3  2  1  0  0  0  0
  4 20  1  0  0  0  0
  4  5  1  0  0  0  0
  5 21  1  0  0  0  0
  5  6  1  0  0  0  0
  6 10  1  0  0  0  0
  7  6  2  0  0  0  0
  7  8  1  0  0  0  0
  8  9  2  0  0  0  0
  9 24  1  0  0  0  0
 10  9  1  0  0  0  0
 11  3  1  0  0  0  0
 12 11  2  0  0  0  0
 13 26  1  0  0  0  0
 13 25  1  0  0  0  0
 13 11  1  0  0  0  0
 14 13  1  0  0  0  0
 15  1  1  0  0  0  0
 19  4  1  0  0  0  0
 22  5  1  0  0  0  0
 23  8  1  0  0  0  0
 27 14  1  0  0  0  0
M  END
