41383308.xyz
 OpenBabel08132112133D
COCC1CCN(CC1)C(=O)CS
 30 30  0  0  0  0  0  0  0  0999 V2000
    0.3146   -2.7823    8.9984 C   0  0  0  0  0  0  0  0  0  0  0  0
    0.8903   -1.6969    8.3243 O   0  0  0  0  0  0  0  0  0  0  0  0
    1.6093   -2.0595    7.1737 C   0  0  0  0  0  0  0  0  0  0  0  0
    2.1524   -0.8075    6.4955 C   0  0  0  0  0  0  0  0  0  0  0  0
    1.0213    0.1363    6.0381 C   0  0  0  0  0  0  0  0  0  0  0  0
    0.5323   -0.1760    4.6267 C   0  0  0  0  0  0  0  0  0  0  0  0
    1.6321   -0.0574    3.6667 N   0  0  0  0  0  0  0  0  0  0  0  0
    2.9990   -0.1600    4.1831 C   0  0  0  0  0  0  0  0  0  0  0  0
    3.0620   -1.1906    5.3062 C   0  0  0  0  0  0  0  0  0  0  0  0
    1.4494   -0.0000    2.3111 C   0  0  0  0  0  0  0  0  0  0  0  0
    2.3757    0.0470    1.5174 O   0  0  0  0  0  0  0  0  0  0  0  0
    0.0000   -0.0000    1.8298 C   0  0  0  0  0  0  0  0  0  0  0  0
    0.0000    0.0000    0.0000 S   0  0  0  0  0  0  0  0  0  0  0  0
   -0.2224   -2.3905    9.8743 H   0  0  0  0  0  0  0  0  0  0  0  0
   -0.4053   -3.3330    8.3588 H   0  0  0  0  0  0  0  0  0  0  0  0
    1.0787   -3.5062    9.3473 H   0  0  0  0  0  0  0  0  0  0  0  0
    0.9564   -2.6201    6.4681 H   0  0  0  0  0  0  0  0  0  0  0  0
    2.4482   -2.7396    7.4332 H   0  0  0  0  0  0  0  0  0  0  0  0
    2.7475   -0.2730    7.2539 H   0  0  0  0  0  0  0  0  0  0  0  0
    0.1830    0.0727    6.7465 H   0  0  0  0  0  0  0  0  0  0  0  0
    1.3749    1.1790    6.0601 H   0  0  0  0  0  0  0  0  0  0  0  0
    0.0925   -1.1921    4.5949 H   0  0  0  0  0  0  0  0  0  0  0  0
   -0.2741    0.5229    4.3588 H   0  0  0  0  0  0  0  0  0  0  0  0
    3.3489    0.8243    4.5449 H   0  0  0  0  0  0  0  0  0  0  0  0
    3.6409   -0.4362    3.3379 H   0  0  0  0  0  0  0  0  0  0  0  0
    4.1043   -1.3157    5.6379 H   0  0  0  0  0  0  0  0  0  0  0  0
    2.7465   -2.1640    4.8905 H   0  0  0  0  0  0  0  0  0  0  0  0
   -0.5289   -0.8839    2.2194 H   0  0  0  0  0  0  0  0  0  0  0  0
   -0.5211    0.8908    2.2159 H   0  0  0  0  0  0  0  0  0  0  0  0
   -1.3519   -0.0223   -0.0966 H   0  0  0  0  0  0  0  0  0  0  0  0
  1 16  1  0  0  0  0
  1 14  1  0  0  0  0
  2  1  1  0  0  0  0
  3 18  1  0  0  0  0
  3  2  1  0  0  0  0
  4  3  1  0  0  0  0
  4 19  1  0  0  0  0
  5 21  1  0  0  0  0
  5  4  1  0  0  0  0
  5 20  1  0  0  0  0
  6  5  1  0  0  0  0
  7  8  1  0  0  0  0
  7  6  1  0  0  0  0
  8 24  1  0  0  0  0
  8  9  1  0  0  0  0
  9 26  1  0  0  0  0
  9  4  1  0  0  0  0
 10  7  1  0  0  0  0
 11 10  2  0  0  0  0
 12 29  1  0  0  0  0
 12 28  1  0  0  0  0
 12 10  1  0  0  0  0
 13 12  1  0  0  0  0
 15  1  1  0  0  0  0
 17  3  1  0  0  0  0
 22  6  1  0  0  0  0
 23  6  1  0  0  0  0
 25  8  1  0  0  0  0
 27  9  1  0  0  0  0
 30 13  1  0  0  0  0
M  END
