41680522.xyz
 OpenBabel08132112133D
NC(=O)C(n1c(S)nc2c1ccc(c2)I)C
 26 27  0  0  1  0  0  0  0  0999 V2000
    2.8761    2.2165    2.6514 N   0  0  0  0  0  0  0  0  0  0  0  0
    3.4630    0.9993    2.5128 C   0  0  0  0  0  0  0  0  0  0  0  0
    4.6278    0.7763    2.7767 O   0  0  0  0  0  0  0  0  0  0  0  0
    2.5460   -0.0978    1.9205 C   0  0  2  0  0  0  0  0  0  0  0  0
    1.1964   -0.0000    2.4626 N   0  0  0  0  0  0  0  0  0  0  0  0
    0.0000    0.0000    1.7622 C   0  0  0  0  0  0  0  0  0  0  0  0
    0.0000    0.0000    0.0000 S   0  0  0  0  0  0  0  0  0  0  0  0
   -1.0614    0.0037    2.5256 N   0  0  0  0  0  0  0  0  0  0  0  0
   -0.5732   -0.0122    3.8235 C   0  0  0  0  0  0  0  0  0  0  0  0
    0.8452   -0.0266    3.8110 C   0  0  0  0  0  0  0  0  0  0  0  0
    1.6028   -0.0396    4.9837 C   0  0  0  0  0  0  0  0  0  0  0  0
    0.9044   -0.0407    6.1932 C   0  0  0  0  0  0  0  0  0  0  0  0
   -0.5049   -0.0261    6.2091 C   0  0  0  0  0  0  0  0  0  0  0  0
   -1.2668   -0.0108    5.0418 C   0  0  0  0  0  0  0  0  0  0  0  0
   -1.4998   -0.0269    8.0901 I   0  0  0  0  0  0  0  0  0  0  0  0
    3.1437   -1.4908    2.0796 C   0  0  0  0  0  0  0  0  0  0  0  0
    1.8773    2.3383    2.5487 H   0  0  0  0  0  0  0  0  0  0  0  0
    3.4187    2.9604    3.0742 H   0  0  0  0  0  0  0  0  0  0  0  0
    2.4662    0.1418    0.8467 H   0  0  0  0  0  0  0  0  0  0  0  0
   -1.3488    0.0535   -0.0563 H   0  0  0  0  0  0  0  0  0  0  0  0
    2.6937   -0.0496    4.9727 H   0  0  0  0  0  0  0  0  0  0  0  0
    1.4577   -0.0534    7.1328 H   0  0  0  0  0  0  0  0  0  0  0  0
   -2.3565    0.0014    5.0559 H   0  0  0  0  0  0  0  0  0  0  0  0
    4.1613   -1.5053    1.6692 H   0  0  0  0  0  0  0  0  0  0  0  0
    3.2033   -1.7747    3.1397 H   0  0  0  0  0  0  0  0  0  0  0  0
    2.5219   -2.2268    1.5501 H   0  0  0  0  0  0  0  0  0  0  0  0
  1 18  1  0  0  0  0
  2  1  1  0  0  0  0
  2  3  2  0  0  0  0
  4 19  1  6  0  0  0
  4 16  1  0  0  0  0
  4  5  1  0  0  0  0
  4  2  1  0  0  0  0
  5 10  1  0  0  0  0
  6  5  1  0  0  0  0
  6  8  2  0  0  0  0
  7  6  1  0  0  0  0
  8  9  2  0  0  0  0
  9 14  1  0  0  0  0
 10  9  1  0  0  0  0
 10 11  2  0  0  0  0
 11 12  1  0  0  0  0
 12 13  1  0  0  0  0
 12 22  1  0  0  0  0
 13 15  1  0  0  0  0
 14 23  1  0  0  0  0
 14 13  2  0  0  0  0
 16 25  1  0  0  0  0
 17  1  1  0  0  0  0
 20  7  1  0  0  0  0
 21 11  1  0  0  0  0
 24 16  1  0  0  0  0
 26 16  1  0  0  0  0
M  RAD  1  12   2
M  END
