41733647.xyz
 OpenBabel08132112133D
OCc1cnc(n1CCN(C1CC1)C)S
 32 33  0  0  1  0  0  0  0  0999 V2000
   -2.4816    1.2869    4.9597 O   0  0  0  0  0  0  0  0  0  0  0  0
   -1.7830    0.0428    4.9417 C   0  0  0  0  0  0  0  0  0  0  0  0
   -0.8047    0.0200    3.8266 C   0  0  2  0  0  0  0  0  0  0  0  0
    0.5734    0.0165    3.8252 C   0  0  0  0  0  0  0  0  0  0  0  0
    1.0633    0.0000    2.5427 N   0  0  0  0  0  0  0  0  0  0  0  0
   -0.0000   -0.0000    1.7691 C   0  0  0  0  0  0  0  0  0  0  0  0
   -1.1697    0.0002    2.4808 N   0  0  0  0  0  0  0  0  0  0  0  0
   -2.5095    0.0740    1.9232 C   0  0  0  0  0  0  0  0  0  0  0  0
   -2.9459    1.5145    1.6212 C   0  0  0  0  0  0  0  0  0  0  0  0
   -4.2244    1.5387    0.9367 N   0  0  0  0  0  0  0  0  0  0  0  0
   -5.4256    1.4596    1.7256 C   0  0  0  0  0  0  0  0  0  0  0  0
   -5.4366    1.1958    3.2029 C   0  0  0  0  0  0  0  0  0  0  0  0
   -5.8543    2.5533    2.6868 C   0  0  0  0  0  0  0  0  0  0  0  0
   -4.3334    2.5143   -0.1299 C   0  0  0  0  0  0  0  0  0  0  0  0
    0.0000    0.0000    0.0000 S   0  0  0  0  0  0  0  0  0  0  0  0
   -3.1021    1.2780    5.7007 H   0  0  0  0  0  0  0  0  0  0  0  0
   -2.5005   -0.7978    4.8479 H   0  0  0  0  0  0  0  0  0  0  0  0
   -1.2179   -0.1145    5.8782 H   0  0  0  0  0  0  0  0  0  0  0  0
    1.2343    0.0203    4.6915 H   0  0  0  0  0  0  0  0  0  0  0  0
   -3.2080   -0.4030    2.6232 H   0  0  0  0  0  0  0  0  0  0  0  0
   -2.5386   -0.5116    0.9922 H   0  0  0  0  0  0  0  0  0  0  0  0
   -2.1924    1.9578    0.9537 H   0  0  0  0  0  0  0  0  0  0  0  0
   -2.9152    2.1018    2.5588 H   0  0  0  0  0  0  0  0  0  0  0  0
   -6.2481    0.9958    1.1660 H   0  0  0  0  0  0  0  0  0  0  0  0
   -4.4867    1.1474    3.7397 H   0  0  0  0  0  0  0  0  0  0  0  0
   -6.2064    0.5192    3.5853 H   0  0  0  0  0  0  0  0  0  0  0  0
   -5.1527    3.3767    2.8518 H   0  0  0  0  0  0  0  0  0  0  0  0
   -6.9086    2.8416    2.7238 H   0  0  0  0  0  0  0  0  0  0  0  0
   -4.3603    3.5669    0.2295 H   0  0  0  0  0  0  0  0  0  0  0  0
   -3.4884    2.4108   -0.8280 H   0  0  0  0  0  0  0  0  0  0  0  0
   -5.2611    2.3398   -0.6985 H   0  0  0  0  0  0  0  0  0  0  0  0
    1.3492   -0.0291   -0.0551 H   0  0  0  0  0  0  0  0  0  0  0  0
  1 16  1  0  0  0  0
  2  1  1  0  0  0  0
  2 18  1  0  0  0  0
  3  2  1  6  0  0  0
  4  3  1  0  0  0  0
  4 19  1  0  0  0  0
  5  4  2  0  0  0  0
  6  7  1  0  0  0  0
  6  5  2  0  0  0  0
  7  3  1  0  0  0  0
  8  7  1  0  0  0  0
  8 20  1  0  0  0  0
  9  8  1  0  0  0  0
  9 23  1  0  0  0  0
 10  9  1  0  0  0  0
 10 11  1  0  0  0  0
 11 13  1  0  0  0  0
 11 12  1  0  0  0  0
 12 26  1  0  0  0  0
 12 25  1  0  0  0  0
 13 28  1  0  0  0  0
 13 27  1  0  0  0  0
 13 12  1  0  0  0  0
 14 29  1  0  0  0  0
 14 10  1  0  0  0  0
 15  6  1  0  0  0  0
 17  2  1  0  0  0  0
 21  8  1  0  0  0  0
 22  9  1  0  0  0  0
 24 11  1  0  0  0  0
 30 14  1  0  0  0  0
 31 14  1  0  0  0  0
 32 15  1  0  0  0  0
M  RAD  1   3   2
M  END
