41733753.xyz
 OpenBabel08132112133D
CCC(n1c(S)ncc1CO)c1nccs1
 29 30  0  0  1  0  0  0  0  0999 V2000
    4.7195   -1.1608    1.5840 C   0  0  0  0  0  0  0  0  0  0  0  0
    3.4438   -1.0437    2.4143 C   0  0  0  0  0  0  0  0  0  0  0  0
    2.5168    0.0721    1.9165 C   0  0  1  0  0  0  0  0  0  0  0  0
    1.1727   -0.0000    2.4939 N   0  0  0  0  0  0  0  0  0  0  0  0
   -0.0000   -0.0000    1.7720 C   0  0  0  0  0  0  0  0  0  0  0  0
    0.0000    0.0000    0.0000 S   0  0  0  0  0  0  0  0  0  0  0  0
   -1.0605    0.0199    2.5387 N   0  0  0  0  0  0  0  0  0  0  0  0
   -0.5764    0.0389    3.8291 C   0  0  0  0  0  0  0  0  0  0  0  0
    0.7997    0.0377    3.8405 C   0  0  1  0  0  0  0  0  0  0  0  0
    1.7323    0.0628    5.0183 C   0  0  0  0  0  0  0  0  0  0  0  0
    1.0704    0.5210    6.1769 O   0  0  0  0  0  0  0  0  0  0  0  0
    3.0935    1.4575    2.1072 C   0  0  0  0  0  0  0  0  0  0  0  0
    3.9840    1.7790    3.0006 N   0  0  0  0  0  0  0  0  0  0  0  0
    4.2668    3.1209    2.9743 C   0  0  0  0  0  0  0  0  0  0  0  0
    3.5747    3.8481    2.0412 C   0  0  0  0  0  0  0  0  0  0  0  0
    2.5205    2.8080    1.1478 S   0  0  0  0  0  0  0  0  0  0  0  0
    5.3366   -2.0003    1.9381 H   0  0  0  0  0  0  0  0  0  0  0  0
    4.4925   -1.3390    0.5198 H   0  0  0  0  0  0  0  0  0  0  0  0
    5.3248   -0.2454    1.6577 H   0  0  0  0  0  0  0  0  0  0  0  0
    3.7043   -0.8629    3.4660 H   0  0  0  0  0  0  0  0  0  0  0  0
    2.8683   -1.9822    2.3729 H   0  0  0  0  0  0  0  0  0  0  0  0
    2.3749   -0.0800    0.8358 H   0  0  0  0  0  0  0  0  0  0  0  0
   -1.3490    0.0344   -0.0522 H   0  0  0  0  0  0  0  0  0  0  0  0
   -1.2370    0.0480    4.6935 H   0  0  0  0  0  0  0  0  0  0  0  0
    2.6321    0.6619    4.7852 H   0  0  0  0  0  0  0  0  0  0  0  0
    2.0855   -0.9556    5.2567 H   0  0  0  0  0  0  0  0  0  0  0  0
    0.7113    1.3963    5.9756 H   0  0  0  0  0  0  0  0  0  0  0  0
    5.0008    3.5326    3.6685 H   0  0  0  0  0  0  0  0  0  0  0  0
    3.6324    4.9150    1.8343 H   0  0  0  0  0  0  0  0  0  0  0  0
  1 19  1  0  0  0  0
  1 17  1  0  0  0  0
  1  2  1  0  0  0  0
  2 20  1  0  0  0  0
  3 22  1  6  0  0  0
  3 12  1  0  0  0  0
  3  2  1  0  0  0  0
  3  4  1  0  0  0  0
  4  9  1  0  0  0  0
  5  4  1  0  0  0  0
  5  7  2  0  0  0  0
  6  5  1  0  0  0  0
  7  8  2  0  0  0  0
  8  9  1  0  0  0  0
  8 24  1  0  0  0  0
  9 10  1  1  0  0  0
 10 26  1  0  0  0  0
 10 11  1  0  0  0  0
 12 13  2  0  0  0  0
 14 13  2  0  0  0  0
 14 28  1  0  0  0  0
 15 14  1  0  0  0  0
 16 15  1  0  0  0  0
 16 12  1  0  0  0  0
 18  1  1  0  0  0  0
 21  2  1  0  0  0  0
 23  6  1  0  0  0  0
 25 10  1  0  0  0  0
 27 11  1  0  0  0  0
 29 15  1  0  0  0  0
M  RAD  2   9   2  15   2
M  END
