41733705.xyz
 OpenBabel08132112133D
OCc1cnc(n1CCOC1CCCC1)S
 34 35  0  0  1  0  0  0  0  0999 V2000
    2.3728    1.4024    5.0886 O   0  0  0  0  0  0  0  0  0  0  0  0
    1.7519    0.1245    4.9699 C   0  0  0  0  0  0  0  0  0  0  0  0
    0.7893    0.0202    3.8386 C   0  0  1  0  0  0  0  0  0  0  0  0
   -0.5910    0.0034    3.8240 C   0  0  0  0  0  0  0  0  0  0  0  0
   -1.0682   -0.0048    2.5389 N   0  0  0  0  0  0  0  0  0  0  0  0
    0.0000    0.0000    1.7683 C   0  0  0  0  0  0  0  0  0  0  0  0
    1.1630    0.0000    2.4961 N   0  0  0  0  0  0  0  0  0  0  0  0
    2.5114    0.0743    1.9620 C   0  0  0  0  0  0  0  0  0  0  0  0
    2.9828    1.5156    1.8146 C   0  0  0  0  0  0  0  0  0  0  0  0
    2.0831    2.1840    0.9679 O   0  0  0  0  0  0  0  0  0  0  0  0
    1.9437    3.5825    1.2017 C   0  0  0  0  0  0  0  0  0  0  0  0
    1.1090    4.1603    0.0612 C   0  0  0  0  0  0  0  0  0  0  0  0
   -0.3456    3.7913    0.4174 C   0  0  0  0  0  0  0  0  0  0  0  0
   -0.3795    3.6645    1.9669 C   0  0  0  0  0  0  0  0  0  0  0  0
    1.0788    3.8689    2.4396 C   0  0  0  0  0  0  0  0  0  0  0  0
    0.0000    0.0000    0.0000 S   0  0  0  0  0  0  0  0  0  0  0  0
    1.6694    2.0605    5.1764 H   0  0  0  0  0  0  0  0  0  0  0  0
    2.5818   -0.5919    4.8599 H   0  0  0  0  0  0  0  0  0  0  0  0
    1.2155   -0.1502    5.8966 H   0  0  0  0  0  0  0  0  0  0  0  0
   -1.2602   -0.0068    4.6843 H   0  0  0  0  0  0  0  0  0  0  0  0
    2.5055   -0.4253    0.9818 H   0  0  0  0  0  0  0  0  0  0  0  0
    3.1938   -0.4798    2.6226 H   0  0  0  0  0  0  0  0  0  0  0  0
    4.0092    1.5235    1.3942 H   0  0  0  0  0  0  0  0  0  0  0  0
    3.0233    1.9701    2.8177 H   0  0  0  0  0  0  0  0  0  0  0  0
    2.9477    4.0431    1.2697 H   0  0  0  0  0  0  0  0  0  0  0  0
    1.2457    5.2543    0.0510 H   0  0  0  0  0  0  0  0  0  0  0  0
    1.4383    3.7689   -0.9125 H   0  0  0  0  0  0  0  0  0  0  0  0
   -0.6100    2.8286   -0.0410 H   0  0  0  0  0  0  0  0  0  0  0  0
   -1.0588    4.5401    0.0410 H   0  0  0  0  0  0  0  0  0  0  0  0
   -1.0501    4.4050    2.4287 H   0  0  0  0  0  0  0  0  0  0  0  0
   -0.7537    2.6740    2.2602 H   0  0  0  0  0  0  0  0  0  0  0  0
    1.3531    3.2302    3.2914 H   0  0  0  0  0  0  0  0  0  0  0  0
    1.2513    4.9127    2.7504 H   0  0  0  0  0  0  0  0  0  0  0  0
   -1.1291   -0.7413   -0.0732 H   0  0  0  0  0  0  0  0  0  0  0  0
  1 17  1  0  0  0  0
  2  1  1  0  0  0  0
  2 19  1  0  0  0  0
  3  2  1  6  0  0  0
  4  3  1  0  0  0  0
  4 20  1  0  0  0  0
  5  4  2  0  0  0  0
  6  7  1  0  0  0  0
  6  5  2  0  0  0  0
  7  3  1  0  0  0  0
  8  7  1  0  0  0  0
  8 22  1  0  0  0  0
  9  8  1  0  0  0  0
  9 24  1  0  0  0  0
 10 11  1  0  0  0  0
 10  9  1  0  0  0  0
 11 25  1  0  0  0  0
 11 15  1  0  0  0  0
 12 13  1  0  0  0  0
 12 11  1  0  0  0  0
 13 14  1  0  0  0  0
 14 31  1  0  0  0  0
 14 30  1  0  0  0  0
 14 15  1  0  0  0  0
 15 33  1  0  0  0  0
 15 32  1  0  0  0  0
 16  6  1  0  0  0  0
 18  2  1  0  0  0  0
 21  8  1  0  0  0  0
 23  9  1  0  0  0  0
 26 12  1  0  0  0  0
 27 12  1  0  0  0  0
 28 13  1  0  0  0  0
 29 13  1  0  0  0  0
 34 16  1  0  0  0  0
M  RAD  1   3   2
M  END
