4190146.xyz
 OpenBabel08132112133D
Clc1ccc(c(c1)Cl)n1c(CCCCc2nnc(n2c2ccc(cc2Cl)Cl)S)nnc1S
 48 51  0  0  0  0  0  0  0  0999 V2000
    6.8499    0.1308    0.9042 Cl  0  0  0  0  0  0  0  0  0  0  0  0
    5.1712    0.0982    1.3600 C   0  0  0  0  0  0  0  0  0  0  0  0
    4.4447   -1.0914    1.2449 C   0  0  0  0  0  0  0  0  0  0  0  0
    3.1059   -1.0926    1.6207 C   0  0  0  0  0  0  0  0  0  0  0  0
    2.4887    0.0576    2.1204 C   0  0  0  0  0  0  0  0  0  0  0  0
    3.2331    1.2437    2.2184 C   0  0  0  0  0  0  0  0  0  0  0  0
    4.5762    1.2700    1.8382 C   0  0  0  0  0  0  0  0  0  0  0  0
    2.4760    2.6922    2.8181 Cl  0  0  0  0  0  0  0  0  0  0  0  0
    1.1363    0.0000    2.5468 N   0  0  0  0  0  0  0  0  0  0  0  0
    0.6584   -0.1139    3.8447 C   0  0  0  0  0  0  0  0  0  0  0  0
    1.5308   -0.1507    5.0558 C   0  0  0  0  0  0  0  0  0  0  0  0
    2.3702   -1.4356    5.1767 C   0  0  0  0  0  0  0  0  0  0  0  0
    1.5228   -2.6914    5.3906 C   0  0  0  0  0  0  0  0  0  0  0  0
    2.2922   -3.9962    5.1152 C   0  0  0  0  0  0  0  0  0  0  0  0
    2.6962   -4.1663    3.6879 C   0  0  0  0  0  0  0  0  0  0  0  0
    3.9124   -4.1001    3.2035 N   0  0  0  0  0  0  0  0  0  0  0  0
    3.8560   -4.3142    1.8449 N   0  0  0  0  0  0  0  0  0  0  0  0
    2.5996   -4.4940    1.5238 C   0  0  0  0  0  0  0  0  0  0  0  0
    1.8035   -4.3975    2.6508 N   0  0  0  0  0  0  0  0  0  0  0  0
    0.3882   -4.4731    2.7228 C   0  0  0  0  0  0  0  0  0  0  0  0
   -0.3829   -3.3668    2.3551 C   0  0  0  0  0  0  0  0  0  0  0  0
   -1.7691   -3.3812    2.4644 C   0  0  0  0  0  0  0  0  0  0  0  0
   -2.3911   -4.5408    2.9387 C   0  0  0  0  0  0  0  0  0  0  0  0
   -1.6479   -5.6703    3.2959 C   0  0  0  0  0  0  0  0  0  0  0  0
   -0.2565   -5.6305    3.1866 C   0  0  0  0  0  0  0  0  0  0  0  0
    0.6854   -7.0263    3.6286 Cl  0  0  0  0  0  0  0  0  0  0  0  0
   -4.1233   -4.5881    3.0935 Cl  0  0  0  0  0  0  0  0  0  0  0  0
    1.9959   -4.6647   -0.1186 S   0  0  0  0  0  0  0  0  0  0  0  0
   -0.6488   -0.2061    3.8165 N   0  0  0  0  0  0  0  0  0  0  0  0
   -1.0663   -0.1263    2.5072 N   0  0  0  0  0  0  0  0  0  0  0  0
    0.0000   -0.0000    1.7582 C   0  0  0  0  0  0  0  0  0  0  0  0
    0.0000    0.0000    0.0000 S   0  0  0  0  0  0  0  0  0  0  0  0
    4.9122   -2.0146    0.9015 H   0  0  0  0  0  0  0  0  0  0  0  0
    2.5219   -2.0062    1.5384 H   0  0  0  0  0  0  0  0  0  0  0  0
    5.1506    2.1918    1.9206 H   0  0  0  0  0  0  0  0  0  0  0  0
    2.1938    0.7292    5.0466 H   0  0  0  0  0  0  0  0  0  0  0  0
    0.8614   -0.0453    5.9222 H   0  0  0  0  0  0  0  0  0  0  0  0
    2.9930   -1.5557    4.2766 H   0  0  0  0  0  0  0  0  0  0  0  0
    3.0811   -1.3189    6.0111 H   0  0  0  0  0  0  0  0  0  0  0  0
    0.6269   -2.6492    4.7517 H   0  0  0  0  0  0  0  0  0  0  0  0
    1.1436   -2.7136    6.4254 H   0  0  0  0  0  0  0  0  0  0  0  0
    1.6822   -4.8613    5.4205 H   0  0  0  0  0  0  0  0  0  0  0  0
    3.2203   -4.0274    5.7048 H   0  0  0  0  0  0  0  0  0  0  0  0
    0.1216   -2.4764    1.9877 H   0  0  0  0  0  0  0  0  0  0  0  0
   -2.3419   -2.4880    2.2138 H   0  0  0  0  0  0  0  0  0  0  0  0
   -2.1429   -6.5693    3.6608 H   0  0  0  0  0  0  0  0  0  0  0  0
    0.9193   -5.4142    0.2140 H   0  0  0  0  0  0  0  0  0  0  0  0
    1.1108    0.7617   -0.1316 H   0  0  0  0  0  0  0  0  0  0  0  0
  1  2  1  0  0  0  0
  2  7  1  0  0  0  0
  3  2  2  0  0  0  0
  3  4  1  0  0  0  0
  4  5  2  0  0  0  0
  5  6  1  0  0  0  0
  5  9  1  0  0  0  0
  6  8  1  0  0  0  0
  7 35  1  0  0  0  0
  7  6  2  0  0  0  0
  9 10  1  0  0  0  0
 10 11  1  0  0  0  0
 11 12  1  0  0  0  0
 11 37  1  0  0  0  0
 12 13  1  0  0  0  0
 12 39  1  0  0  0  0
 13 41  1  0  0  0  0
 14 13  1  0  0  0  0
 14 42  1  0  0  0  0
 14 43  1  0  0  0  0
 15 14  1  0  0  0  0
 16 15  2  0  0  0  0
 17 16  1  0  0  0  0
 18 17  2  0  0  0  0
 18 19  1  0  0  0  0
 19 20  1  0  0  0  0
 19 15  1  0  0  0  0
 20 25  2  0  0  0  0
 21 22  2  0  0  0  0
 21 20  1  0  0  0  0
 22 23  1  0  0  0  0
 23 27  1  0  0  0  0
 23 24  2  0  0  0  0
 24 46  1  0  0  0  0
 25 24  1  0  0  0  0
 25 26  1  0  0  0  0
 28 47  1  0  0  0  0
 28 18  1  0  0  0  0
 29 10  2  0  0  0  0
 30 29  1  0  0  0  0
 31 30  2  0  0  0  0
 31  9  1  0  0  0  0
 32 31  1  0  0  0  0
 33  3  1  0  0  0  0
 34  4  1  0  0  0  0
 36 11  1  0  0  0  0
 38 12  1  0  0  0  0
 40 13  1  0  0  0  0
 44 21  1  0  0  0  0
 45 22  1  0  0  0  0
 48 32  1  0  0  0  0
M  END
