42157486.xyz
 OpenBabel08132112133D
Sc1nc2c(n1CCCS(=O)(=O)C)ccnc2
 30 31  0  0  0  0  0  0  0  0999 V2000
    0.0000    0.0000    0.0000 S   0  0  0  0  0  0  0  0  0  0  0  0
   -0.0000    0.0000    1.7618 C   0  0  0  0  0  0  0  0  0  0  0  0
    1.0541   -0.0000    2.5323 N   0  0  0  0  0  0  0  0  0  0  0  0
    0.5503   -0.0184    3.8245 C   0  0  0  0  0  0  0  0  0  0  0  0
   -0.8662   -0.0325    3.7970 C   0  0  0  0  0  0  0  0  0  0  0  0
   -1.2046   -0.0040    2.4545 N   0  0  0  0  0  0  0  0  0  0  0  0
   -2.5392   -0.0735    1.8954 C   0  0  0  0  0  0  0  0  0  0  0  0
   -3.0118   -1.5137    1.6846 C   0  0  0  0  0  0  0  0  0  0  0  0
   -4.4133   -1.5702    1.0886 C   0  0  0  0  0  0  0  0  0  0  0  0
   -4.8947   -3.3153    0.9134 S   0  0  0  0  0  0  0  0  0  0  0  0
   -5.0164   -3.8732    2.2668 O   0  0  0  0  0  0  0  0  0  0  0  0
   -3.9952   -3.9229   -0.0758 O   0  0  0  0  0  0  0  0  0  0  0  0
   -6.5446   -3.2486    0.1929 C   0  0  0  0  0  0  0  0  0  0  0  0
   -1.6063   -0.0635    4.9790 C   0  0  0  0  0  0  0  0  0  0  0  0
   -0.8512   -0.0711    6.1560 C   0  0  0  0  0  0  0  0  0  0  0  0
    0.4916   -0.0514    6.2053 N   0  0  0  0  0  0  0  0  0  0  0  0
    1.1893   -0.0258    5.0718 C   0  0  0  0  0  0  0  0  0  0  0  0
    1.3490    0.0371   -0.0614 H   0  0  0  0  0  0  0  0  0  0  0  0
   -3.2183    0.4644    2.5757 H   0  0  0  0  0  0  0  0  0  0  0  0
   -2.5431    0.4814    0.9433 H   0  0  0  0  0  0  0  0  0  0  0  0
   -3.0052   -2.0508    2.6457 H   0  0  0  0  0  0  0  0  0  0  0  0
   -2.3135   -2.0375    1.0139 H   0  0  0  0  0  0  0  0  0  0  0  0
   -5.1645   -1.0966    1.7395 H   0  0  0  0  0  0  0  0  0  0  0  0
   -4.4577   -1.1212    0.0843 H   0  0  0  0  0  0  0  0  0  0  0  0
   -6.4940   -2.7623   -0.7897 H   0  0  0  0  0  0  0  0  0  0  0  0
   -7.2221   -2.7256    0.8801 H   0  0  0  0  0  0  0  0  0  0  0  0
   -6.8460   -4.2995    0.0848 H   0  0  0  0  0  0  0  0  0  0  0  0
   -2.6973   -0.0880    5.0044 H   0  0  0  0  0  0  0  0  0  0  0  0
   -1.3678   -0.0974    7.1220 H   0  0  0  0  0  0  0  0  0  0  0  0
    2.2828   -0.0124    5.1374 H   0  0  0  0  0  0  0  0  0  0  0  0
  1  2  1  0  0  0  0
  2  6  1  0  0  0  0
  2  3  2  0  0  0  0
  3  4  2  0  0  0  0
  4 17  1  0  0  0  0
  5  4  1  0  0  0  0
  5 14  2  0  0  0  0
  6  5  1  0  0  0  0
  7  6  1  0  0  0  0
  7 19  1  0  0  0  0
  8  7  1  0  0  0  0
  8 21  1  0  0  0  0
  9  8  1  0  0  0  0
  9 23  1  0  0  0  0
 10  9  1  0  0  0  0
 10 11  2  0  0  0  0
 12 10  2  0  0  0  0
 13 26  1  0  0  0  0
 13 10  1  0  0  0  0
 14 28  1  0  0  0  0
 14 15  1  0  0  0  0
 15 16  2  0  0  0  0
 15 29  1  0  0  0  0
 17 30  1  0  0  0  0
 17 16  2  0  0  0  0
 18  1  1  0  0  0  0
 20  7  1  0  0  0  0
 22  8  1  0  0  0  0
 24  9  1  0  0  0  0
 25 13  1  0  0  0  0
 27 13  1  0  0  0  0
M  END
