42160418.xyz
 OpenBabel08132112133D
Cc1cnc2c(c1)nc(n2C1CCOCC1)S
 32 34  0  0  0  0  0  0  0  0999 V2000
    1.0401   -0.0174    7.5783 C   0  0  0  0  0  0  0  0  0  0  0  0
    0.4258   -0.0129    6.2012 C   0  0  0  0  0  0  0  0  0  0  0  0
   -0.9770   -0.0140    6.0435 C   0  0  0  0  0  0  0  0  0  0  0  0
   -1.6158   -0.0111    4.8657 N   0  0  0  0  0  0  0  0  0  0  0  0
   -0.8246   -0.0066    3.8068 C   0  0  0  0  0  0  0  0  0  0  0  0
    0.5961   -0.0041    3.8120 C   0  0  0  0  0  0  0  0  0  0  0  0
    1.2339   -0.0075    5.0526 C   0  0  0  0  0  0  0  0  0  0  0  0
    1.0746    0.0000    2.5149 N   0  0  0  0  0  0  0  0  0  0  0  0
    0.0000    0.0000    1.7618 C   0  0  0  0  0  0  0  0  0  0  0  0
   -1.1901   -0.0014    2.4641 N   0  0  0  0  0  0  0  0  0  0  0  0
   -2.5456   -0.0170    1.9261 C   0  0  0  0  0  0  0  0  0  0  0  0
   -3.3110   -1.2840    2.3232 C   0  0  0  0  0  0  0  0  0  0  0  0
   -4.6635   -1.3068    1.5828 C   0  0  0  0  0  0  0  0  0  0  0  0
   -5.0964   -0.0105    1.2081 O   0  0  0  0  0  0  0  0  0  0  0  0
   -4.8489    0.9540    2.2116 C   0  0  0  0  0  0  0  0  0  0  0  0
   -3.3406    1.2380    2.3395 C   0  0  0  0  0  0  0  0  0  0  0  0
    0.0000    0.0000    0.0000 S   0  0  0  0  0  0  0  0  0  0  0  0
    1.6740   -0.9063    7.7318 H   0  0  0  0  0  0  0  0  0  0  0  0
    0.2685   -0.0166    8.3622 H   0  0  0  0  0  0  0  0  0  0  0  0
    1.6795    0.8669    7.7352 H   0  0  0  0  0  0  0  0  0  0  0  0
   -1.6128   -0.0173    6.9357 H   0  0  0  0  0  0  0  0  0  0  0  0
    2.3244   -0.0060    5.1221 H   0  0  0  0  0  0  0  0  0  0  0  0
   -2.4395   -0.0145    0.8310 H   0  0  0  0  0  0  0  0  0  0  0  0
   -3.4450   -1.2783    3.4149 H   0  0  0  0  0  0  0  0  0  0  0  0
   -2.7209   -2.1787    2.0727 H   0  0  0  0  0  0  0  0  0  0  0  0
   -5.4306   -1.8031    2.2108 H   0  0  0  0  0  0  0  0  0  0  0  0
   -4.5831   -1.8763    0.6438 H   0  0  0  0  0  0  0  0  0  0  0  0
   -5.2597    0.6110    3.1821 H   0  0  0  0  0  0  0  0  0  0  0  0
   -5.4007    1.8611    1.9260 H   0  0  0  0  0  0  0  0  0  0  0  0
   -3.0981    1.4941    3.3805 H   0  0  0  0  0  0  0  0  0  0  0  0
   -3.0378    2.0822    1.7012 H   0  0  0  0  0  0  0  0  0  0  0  0
    1.3503    0.0057   -0.0511 H   0  0  0  0  0  0  0  0  0  0  0  0
  1 18  1  0  0  0  0
  1 20  1  0  0  0  0
  1 19  1  0  0  0  0
  2  1  1  0  0  0  0
  3  2  1  0  0  0  0
  3 21  1  0  0  0  0
  4  3  2  0  0  0  0
  5  6  1  0  0  0  0
  5  4  2  0  0  0  0
  6  7  1  0  0  0  0
  7 22  1  0  0  0  0
  7  2  2  0  0  0  0
  8  6  2  0  0  0  0
  9 10  1  0  0  0  0
  9  8  2  0  0  0  0
 10  5  1  0  0  0  0
 11 12  1  0  0  0  0
 11 16  1  0  0  0  0
 11 10  1  0  0  0  0
 12 24  1  0  0  0  0
 13 26  1  0  0  0  0
 13 12  1  0  0  0  0
 14 13  1  0  0  0  0
 14 15  1  0  0  0  0
 15 16  1  0  0  0  0
 15 28  1  0  0  0  0
 16 30  1  0  0  0  0
 17  9  1  0  0  0  0
 23 11  1  0  0  0  0
 25 12  1  0  0  0  0
 27 13  1  0  0  0  0
 29 15  1  0  0  0  0
 31 16  1  0  0  0  0
 32 17  1  0  0  0  0
M  END
