42236103.xyz
 OpenBabel08132112133D
O=C(NC1CC1)CCn1c(S)ncc1C(C)C
 36 37  0  0  1  0  0  0  0  0999 V2000
    5.1901    1.0222    1.8463 O   0  0  0  0  0  0  0  0  0  0  0  0
    4.3550    1.7107    1.2851 C   0  0  0  0  0  0  0  0  0  0  0  0
    4.6709    2.6506    0.3446 N   0  0  0  0  0  0  0  0  0  0  0  0
    6.0223    2.9792    0.0045 C   0  0  0  0  0  0  0  0  0  0  0  0
    6.8490    1.9615   -0.7294 C   0  0  0  0  0  0  0  0  0  0  0  0
    6.3520    3.1860   -1.4511 C   0  0  0  0  0  0  0  0  0  0  0  0
    2.8677    1.5835    1.5991 C   0  0  0  0  0  0  0  0  0  0  0  0
    2.5076    0.1328    1.9253 C   0  0  0  0  0  0  0  0  0  0  0  0
    1.1747    0.0000    2.4820 N   0  0  0  0  0  0  0  0  0  0  0  0
   -0.0000    0.0000    1.7715 C   0  0  0  0  0  0  0  0  0  0  0  0
    0.0000    0.0000    0.0000 S   0  0  0  0  0  0  0  0  0  0  0  0
   -1.0554    0.0097    2.5478 N   0  0  0  0  0  0  0  0  0  0  0  0
   -0.5575    0.0301    3.8340 C   0  0  0  0  0  0  0  0  0  0  0  0
    0.8207    0.0326    3.8329 C   0  0  1  0  0  0  0  0  0  0  0  0
    1.8325   -0.0060    4.9434 C   0  0  0  0  0  0  0  0  0  0  0  0
    2.4236   -1.4169    5.1229 C   0  0  0  0  0  0  0  0  0  0  0  0
    1.2245    0.4989    6.2564 C   0  0  0  0  0  0  0  0  0  0  0  0
    3.9291    3.2391   -0.0169 H   0  0  0  0  0  0  0  0  0  0  0  0
    6.5475    3.6055    0.7365 H   0  0  0  0  0  0  0  0  0  0  0  0
    6.3705    1.0049   -0.9493 H   0  0  0  0  0  0  0  0  0  0  0  0
    7.9083    1.8919   -0.4713 H   0  0  0  0  0  0  0  0  0  0  0  0
    7.0617    3.9770   -1.7063 H   0  0  0  0  0  0  0  0  0  0  0  0
    5.5389    3.0556   -2.1712 H   0  0  0  0  0  0  0  0  0  0  0  0
    2.2397    1.9667    0.7798 H   0  0  0  0  0  0  0  0  0  0  0  0
    2.6595    2.2082    2.4849 H   0  0  0  0  0  0  0  0  0  0  0  0
    2.5741   -0.4928    1.0213 H   0  0  0  0  0  0  0  0  0  0  0  0
    3.2443   -0.2619    2.6340 H   0  0  0  0  0  0  0  0  0  0  0  0
   -1.3490   -0.0236   -0.0584 H   0  0  0  0  0  0  0  0  0  0  0  0
   -1.2215    0.0380    4.6962 H   0  0  0  0  0  0  0  0  0  0  0  0
    2.6632    0.6735    4.6775 H   0  0  0  0  0  0  0  0  0  0  0  0
    3.2019   -1.4196    5.9028 H   0  0  0  0  0  0  0  0  0  0  0  0
    2.8764   -1.7931    4.1932 H   0  0  0  0  0  0  0  0  0  0  0  0
    1.6328   -2.1247    5.4178 H   0  0  0  0  0  0  0  0  0  0  0  0
    1.9837    0.5128    7.0533 H   0  0  0  0  0  0  0  0  0  0  0  0
    0.4065   -0.1603    6.5890 H   0  0  0  0  0  0  0  0  0  0  0  0
    0.8163    1.5148    6.1466 H   0  0  0  0  0  0  0  0  0  0  0  0
  2  7  1  0  0  0  0
  2  1  2  0  0  0  0
  3  2  1  0  0  0  0
  4  3  1  0  0  0  0
  4 19  1  0  0  0  0
  5 21  1  0  0  0  0
  5  4  1  0  0  0  0
  6  5  1  0  0  0  0
  6  4  1  0  0  0  0
  7  8  1  0  0  0  0
  7 25  1  0  0  0  0
  8  9  1  0  0  0  0
  8 27  1  0  0  0  0
  9 14  1  0  0  0  0
 10  9  1  0  0  0  0
 10 12  2  0  0  0  0
 11 10  1  0  0  0  0
 12 13  2  0  0  0  0
 13 29  1  0  0  0  0
 14 13  1  0  0  0  0
 14 15  1  1  0  0  0
 15 16  1  0  0  0  0
 15 17  1  0  0  0  0
 16 33  1  0  0  0  0
 16 31  1  0  0  0  0
 17 35  1  0  0  0  0
 17 34  1  0  0  0  0
 18  3  1  0  0  0  0
 20  5  1  0  0  0  0
 22  6  1  0  0  0  0
 23  6  1  0  0  0  0
 24  7  1  0  0  0  0
 26  8  1  0  0  0  0
 28 11  1  0  0  0  0
 30 15  1  0  0  0  0
 32 16  1  0  0  0  0
 36 17  1  0  0  0  0
M  RAD  1  14   2
M  END
