42810175.xyz
 OpenBabel08132112133D
Sc1nc(N)c(c(n1)O)C
 17 17  0  0  1  0  0  0  0  0999 V2000
    0.0000    0.0000    0.0000 S   0  0  0  0  0  0  0  0  0  0  0  0
   -0.0000   -0.0000    1.7754 C   0  0  0  0  0  0  0  0  0  0  0  0
    1.2020   -0.0000    2.3334 N   0  0  0  0  0  0  0  0  0  0  0  0
    1.2423   -0.0030    3.6782 C   0  0  0  0  0  0  0  0  0  0  0  0
    2.4793   -0.0258    4.2439 N   0  0  0  0  0  0  0  0  0  0  0  0
    0.0723   -0.0026    4.4747 C   0  0  1  0  0  0  0  0  0  0  0  0
   -1.1178    0.0019    3.7425 C   0  0  0  0  0  0  0  0  0  0  0  0
   -1.1734    0.0025    2.4075 N   0  0  0  0  0  0  0  0  0  0  0  0
   -2.2943    0.0048    4.3924 O   0  0  0  0  0  0  0  0  0  0  0  0
    0.1187   -0.0131    5.9754 C   0  0  0  0  0  0  0  0  0  0  0  0
   -1.3475    0.0038   -0.1039 H   0  0  0  0  0  0  0  0  0  0  0  0
    3.2750    0.0756    3.6277 H   0  0  0  0  0  0  0  0  0  0  0  0
    2.6033    0.1276    5.2330 H   0  0  0  0  0  0  0  0  0  0  0  0
   -2.9785    0.0043    3.7035 H   0  0  0  0  0  0  0  0  0  0  0  0
   -0.8938   -0.0466    6.3962 H   0  0  0  0  0  0  0  0  0  0  0  0
    0.6159    0.8890    6.3766 H   0  0  0  0  0  0  0  0  0  0  0  0
    0.6725   -0.8894    6.3569 H   0  0  0  0  0  0  0  0  0  0  0  0
  1  2  1  0  0  0  0
  2  3  2  0  0  0  0
  2  8  2  0  0  0  0
  3  4  2  0  0  0  0
  4  5  1  0  0  0  0
  4  6  1  0  0  0  0
  5 13  1  0  0  0  0
  6 10  1  6  0  0  0
  7  9  1  0  0  0  0
  7  6  1  0  0  0  0
  8  7  2  0  0  0  0
 10 17  1  0  0  0  0
 10 16  1  0  0  0  0
 10 15  1  0  0  0  0
 11  1  1  0  0  0  0
 12  5  1  0  0  0  0
 14  9  1  0  0  0  0
M  RAD  1   6   2
M  END
