42885981.xyz
 OpenBabel08132112133D
Cn1ncc(c1)c1noc(n1)c1ccc2c(c1)nc(n(c2=O)C)S
 36 39  0  0  1  0  0  0  0  0999 V2000
    8.4723   -0.0061   11.7623 C   0  0  0  0  0  0  0  0  0  0  0  0
    7.2529   -0.0012   10.9827 N   0  0  0  0  0  0  0  0  0  0  0  0
    6.0634   -0.0005   11.6131 N   0  0  0  0  0  0  0  0  0  0  0  0
    5.1534   -0.0005   10.6475 C   0  0  0  0  0  0  0  0  0  0  0  0
    5.7628   -0.0016    9.3639 C   0  0  0  0  0  0  0  0  0  0  0  0
    7.1287   -0.0022    9.6334 C   0  0  0  0  0  0  0  0  0  0  0  0
    5.1019   -0.0012    8.0733 C   0  0  0  0  0  0  0  0  0  0  0  0
    5.7491   -0.0011    6.9250 N   0  0  0  0  0  0  0  0  0  0  0  0
    4.7332   -0.0008    5.9763 O   0  0  0  0  0  0  0  0  0  0  0  0
    3.5667   -0.0007    6.6425 C   0  0  0  0  0  0  0  0  0  0  0  0
    3.7307   -0.0009    7.9355 N   0  0  0  0  0  0  0  0  0  0  0  0
    2.3130   -0.0003    5.8908 C   0  0  0  0  0  0  0  0  0  0  0  0
    1.0920   -0.0003    6.6071 C   0  0  0  0  0  0  0  0  0  0  0  0
   -0.1070   -0.0001    5.9167 C   0  0  0  0  0  0  0  0  0  0  0  0
   -0.1126    0.0000    4.5100 C   0  0  1  0  0  0  0  0  0  0  0  0
    1.1027   -0.0000    3.7868 C   0  0  0  0  0  0  0  0  0  0  0  0
    2.3193   -0.0002    4.4970 C   0  0  0  0  0  0  0  0  0  0  0  0
    1.1263    0.0000    2.4090 N   0  0  0  0  0  0  0  0  0  0  0  0
   -0.0000    0.0000    1.7793 C   0  0  0  0  0  0  0  0  0  0  0  0
   -1.2468    0.0002    2.3714 N   0  0  0  0  0  0  0  0  0  0  0  0
   -1.3871    0.0002    3.7836 C   0  0  0  0  0  0  0  0  0  0  0  0
   -2.4873    0.0003    4.3036 O   0  0  0  0  0  0  0  0  0  0  0  0
   -2.4680    0.0003    1.5698 C   0  0  0  0  0  0  0  0  0  0  0  0
    0.0000    0.0000    0.0000 S   0  0  0  0  0  0  0  0  0  0  0  0
    8.5195   -0.9112   12.3856 H   0  0  0  0  0  0  0  0  0  0  0  0
    8.5031    0.8765   12.4178 H   0  0  0  0  0  0  0  0  0  0  0  0
    9.3340    0.0140   11.0828 H   0  0  0  0  0  0  0  0  0  0  0  0
    4.0892    0.0006   10.8767 H   0  0  0  0  0  0  0  0  0  0  0  0
    7.9858   -0.0030    8.9646 H   0  0  0  0  0  0  0  0  0  0  0  0
    1.1229   -0.0004    7.6970 H   0  0  0  0  0  0  0  0  0  0  0  0
   -1.0663   -0.0001    6.4366 H   0  0  0  0  0  0  0  0  0  0  0  0
    3.2526   -0.0003    3.9346 H   0  0  0  0  0  0  0  0  0  0  0  0
   -3.3121    0.0004    2.2677 H   0  0  0  0  0  0  0  0  0  0  0  0
   -2.5122    0.8977    0.9345 H   0  0  0  0  0  0  0  0  0  0  0  0
   -2.5124   -0.8971    0.9346 H   0  0  0  0  0  0  0  0  0  0  0  0
    1.3501   -0.0004   -0.0459 H   0  0  0  0  0  0  0  0  0  0  0  0
  1 25  1  0  0  0  0
  1 26  1  0  0  0  0
  2  3  1  0  0  0  0
  2  1  1  0  0  0  0
  4 28  1  0  0  0  0
  4  3  2  0  0  0  0
  5  6  2  0  0  0  0
  5  4  1  0  0  0  0
  6  2  1  0  0  0  0
  7  5  1  0  0  0  0
  8  7  2  0  0  0  0
  9 10  1  0  0  0  0
  9  8  1  0  0  0  0
 10 11  2  0  0  0  0
 11  7  2  0  0  0  0
 12 13  1  0  0  0  0
 12 10  1  0  0  0  0
 13 30  1  0  0  0  0
 14 31  1  0  0  0  0
 14 13  2  0  0  0  0
 15 21  1  6  0  0  0
 15 14  1  0  0  0  0
 16 17  1  0  0  0  0
 16 15  1  0  0  0  0
 17 12  2  0  0  0  0
 18 16  2  0  0  0  0
 19 20  1  0  0  0  0
 19 18  2  0  0  0  0
 20 21  1  0  0  0  0
 21 22  2  0  0  0  0
 23 33  1  0  0  0  0
 23 20  1  0  0  0  0
 24 19  1  0  0  0  0
 27  1  1  0  0  0  0
 29  6  1  0  0  0  0
 32 17  1  0  0  0  0
 34 23  1  0  0  0  0
 35 23  1  0  0  0  0
 36 24  1  0  0  0  0
M  RAD  1  15   2
M  END
