42885443.xyz
 OpenBabel08132112133D
COc1cccc(c1)SCC(=O)NCc1nnc(n1C)S
 37 38  0  0  0  0  0  0  0  0999 V2000
    0.0482   -3.6836    9.9630 C   0  0  0  0  0  0  0  0  0  0  0  0
   -0.8027   -3.5258    8.8499 O   0  0  0  0  0  0  0  0  0  0  0  0
   -1.9959   -2.9101    9.0134 C   0  0  0  0  0  0  0  0  0  0  0  0
   -2.4758   -2.4213   10.2357 C   0  0  0  0  0  0  0  0  0  0  0  0
   -3.7315   -1.8027   10.2723 C   0  0  0  0  0  0  0  0  0  0  0  0
   -4.5052   -1.6622    9.1254 C   0  0  0  0  0  0  0  0  0  0  0  0
   -4.0152   -2.1546    7.9003 C   0  0  0  0  0  0  0  0  0  0  0  0
   -2.7685   -2.7769    7.8445 C   0  0  0  0  0  0  0  0  0  0  0  0
   -5.0739   -1.9171    6.4843 S   0  0  0  0  0  0  0  0  0  0  0  0
   -4.0794   -2.5901    5.1201 C   0  0  0  0  0  0  0  0  0  0  0  0
   -2.7565   -1.8808    4.7968 C   0  0  0  0  0  0  0  0  0  0  0  0
   -1.8613   -2.4867    4.2351 O   0  0  0  0  0  0  0  0  0  0  0  0
   -2.7027   -0.5633    5.1223 N   0  0  0  0  0  0  0  0  0  0  0  0
   -1.4829    0.2259    5.0744 C   0  0  0  0  0  0  0  0  0  0  0  0
   -0.6740    0.0980    3.8214 C   0  0  0  0  0  0  0  0  0  0  0  0
    0.6407    0.0599    3.8250 N   0  0  0  0  0  0  0  0  0  0  0  0
    1.0651   -0.0000    2.5296 N   0  0  0  0  0  0  0  0  0  0  0  0
    0.0000    0.0000    1.7634 C   0  0  0  0  0  0  0  0  0  0  0  0
   -1.1445    0.0890    2.5372 N   0  0  0  0  0  0  0  0  0  0  0  0
   -2.5159    0.0568    2.0723 C   0  0  0  0  0  0  0  0  0  0  0  0
    0.0000    0.0000    0.0000 S   0  0  0  0  0  0  0  0  0  0  0  0
    0.9498   -4.1911    9.5968 H   0  0  0  0  0  0  0  0  0  0  0  0
   -0.4190   -4.3019   10.7503 H   0  0  0  0  0  0  0  0  0  0  0  0
    0.3354   -2.7099   10.3984 H   0  0  0  0  0  0  0  0  0  0  0  0
   -1.8919   -2.5142   11.1502 H   0  0  0  0  0  0  0  0  0  0  0  0
   -4.1095   -1.4219   11.2243 H   0  0  0  0  0  0  0  0  0  0  0  0
   -5.4818   -1.1759    9.1709 H   0  0  0  0  0  0  0  0  0  0  0  0
   -2.3395   -3.1757    6.9266 H   0  0  0  0  0  0  0  0  0  0  0  0
   -3.8520   -3.6537    5.2740 H   0  0  0  0  0  0  0  0  0  0  0  0
   -4.7362   -2.5233    4.2380 H   0  0  0  0  0  0  0  0  0  0  0  0
   -3.4697   -0.2111    5.6889 H   0  0  0  0  0  0  0  0  0  0  0  0
   -1.7769    1.2790    5.2185 H   0  0  0  0  0  0  0  0  0  0  0  0
   -0.7947   -0.0346    5.8958 H   0  0  0  0  0  0  0  0  0  0  0  0
   -2.5376    0.4083    1.0326 H   0  0  0  0  0  0  0  0  0  0  0  0
   -2.9125   -0.9694    2.1128 H   0  0  0  0  0  0  0  0  0  0  0  0
   -3.1425    0.7074    2.6951 H   0  0  0  0  0  0  0  0  0  0  0  0
   -0.3419   -1.3033   -0.1599 H   0  0  0  0  0  0  0  0  0  0  0  0
  1 24  1  0  0  0  0
  1 23  1  0  0  0  0
  2  3  1  0  0  0  0
  2  1  1  0  0  0  0
  3  4  2  0  0  0  0
  4  5  1  0  0  0  0
  4 25  1  0  0  0  0
  5 26  1  0  0  0  0
  6 27  1  0  0  0  0
  6  5  2  0  0  0  0
  7  6  1  0  0  0  0
  8  7  2  0  0  0  0
  8  3  1  0  0  0  0
  9  7  1  0  0  0  0
 10 29  1  0  0  0  0
 10  9  1  0  0  0  0
 11 10  1  0  0  0  0
 11 13  1  0  0  0  0
 12 11  2  0  0  0  0
 13 31  1  0  0  0  0
 14 13  1  0  0  0  0
 14 32  1  0  0  0  0
 14 33  1  0  0  0  0
 15 16  2  0  0  0  0
 15 14  1  0  0  0  0
 17 16  1  0  0  0  0
 18 17  2  0  0  0  0
 18 19  1  0  0  0  0
 19 15  1  0  0  0  0
 20 35  1  0  0  0  0
 20 19  1  0  0  0  0
 20 36  1  0  0  0  0
 21 18  1  0  0  0  0
 22  1  1  0  0  0  0
 28  8  1  0  0  0  0
 30 10  1  0  0  0  0
 34 20  1  0  0  0  0
 37 21  1  0  0  0  0
M  END
