44006690.xyz
 OpenBabel08132112133D
CC1CC(C)CN(C1)C(=O)c1ccc2c(c1)nc(n(c2=O)C)S
 44 46  0  0  1  0  0  0  0  0999 V2000
   -6.3264    0.9366   10.5853 C   0  0  0  0  0  0  0  0  0  0  0  0
   -5.0770    1.2450    9.7627 C   0  0  2  0  0  0  0  0  0  0  0  0
   -4.8635    2.7619    9.5805 C   0  0  0  0  0  0  0  0  0  0  0  0
   -4.0169    3.1007    8.3345 C   0  0  1  0  0  0  0  0  0  0  0  0
   -3.2398    4.4050    8.5005 C   0  0  0  0  0  0  0  0  0  0  0  0
   -3.0832    1.9351    7.9907 C   0  0  0  0  0  0  0  0  0  0  0  0
   -3.8560    0.7300    7.6865 N   0  0  0  0  0  0  0  0  0  0  0  0
   -5.1177    0.5406    8.4079 C   0  0  0  0  0  0  0  0  0  0  0  0
   -3.6519   -0.0744    6.5963 C   0  0  0  0  0  0  0  0  0  0  0  0
   -4.5028   -0.8634    6.2084 O   0  0  0  0  0  0  0  0  0  0  0  0
   -2.3203    0.0089    5.8928 C   0  0  0  0  0  0  0  0  0  0  0  0
   -1.0975   -0.0010    6.6017 C   0  0  0  0  0  0  0  0  0  0  0  0
    0.1063   -0.0123    5.9149 C   0  0  0  0  0  0  0  0  0  0  0  0
    0.1141   -0.0021    4.5097 C   0  0  2  0  0  0  0  0  0  0  0  0
   -1.1030   -0.0021    3.7887 C   0  0  0  0  0  0  0  0  0  0  0  0
   -2.3177   -0.0118    4.5022 C   0  0  0  0  0  0  0  0  0  0  0  0
   -1.1255    0.0005    2.4099 N   0  0  0  0  0  0  0  0  0  0  0  0
    0.0000    0.0000    1.7806 C   0  0  0  0  0  0  0  0  0  0  0  0
    1.2478    0.0000    2.3722 N   0  0  0  0  0  0  0  0  0  0  0  0
    1.3881    0.0003    3.7842 C   0  0  0  0  0  0  0  0  0  0  0  0
    2.4896    0.0027    4.3032 O   0  0  0  0  0  0  0  0  0  0  0  0
    2.4682   -0.0013    1.5702 C   0  0  0  0  0  0  0  0  0  0  0  0
    0.0000    0.0000    0.0000 S   0  0  0  0  0  0  0  0  0  0  0  0
   -6.4242   -0.1425   10.7831 H   0  0  0  0  0  0  0  0  0  0  0  0
   -7.2355    1.2660   10.0547 H   0  0  0  0  0  0  0  0  0  0  0  0
   -6.2994    1.4581   11.5552 H   0  0  0  0  0  0  0  0  0  0  0  0
   -4.2045    0.8385   10.3047 H   0  0  0  0  0  0  0  0  0  0  0  0
   -4.3794    3.1684   10.4850 H   0  0  0  0  0  0  0  0  0  0  0  0
   -5.8405    3.2686    9.5013 H   0  0  0  0  0  0  0  0  0  0  0  0
   -4.6988    3.2122    7.4734 H   0  0  0  0  0  0  0  0  0  0  0  0
   -2.7092    4.6829    7.5758 H   0  0  0  0  0  0  0  0  0  0  0  0
   -3.9144    5.2344    8.7649 H   0  0  0  0  0  0  0  0  0  0  0  0
   -2.4915    4.3161    9.3062 H   0  0  0  0  0  0  0  0  0  0  0  0
   -2.3874    1.7632    8.8340 H   0  0  0  0  0  0  0  0  0  0  0  0
   -2.4689    2.1953    7.1199 H   0  0  0  0  0  0  0  0  0  0  0  0
   -5.2858   -0.5395    8.5230 H   0  0  0  0  0  0  0  0  0  0  0  0
   -5.9667    0.9164    7.8047 H   0  0  0  0  0  0  0  0  0  0  0  0
   -1.1047   -0.0204    7.6926 H   0  0  0  0  0  0  0  0  0  0  0  0
    1.0646   -0.0313    6.4368 H   0  0  0  0  0  0  0  0  0  0  0  0
   -3.2556   -0.0433    3.9475 H   0  0  0  0  0  0  0  0  0  0  0  0
    3.3124   -0.0016    2.2681 H   0  0  0  0  0  0  0  0  0  0  0  0
    2.5136    0.8956    0.9341 H   0  0  0  0  0  0  0  0  0  0  0  0
    2.5119   -0.8989    0.9351 H   0  0  0  0  0  0  0  0  0  0  0  0
   -1.3501   -0.0070   -0.0448 H   0  0  0  0  0  0  0  0  0  0  0  0
  1 24  1  0  0  0  0
  1 26  1  0  0  0  0
  2 27  1  1  0  0  0
  2  1  1  0  0  0  0
  3  2  1  0  0  0  0
  3 28  1  0  0  0  0
  4 30  1  6  0  0  0
  4  5  1  0  0  0  0
  4  3  1  0  0  0  0
  5 32  1  0  0  0  0
  5 33  1  0  0  0  0
  6  4  1  0  0  0  0
  6 34  1  0  0  0  0
  7  6  1  0  0  0  0
  7  8  1  0  0  0  0
  8 36  1  0  0  0  0
  8  2  1  0  0  0  0
  9  7  1  0  0  0  0
 10  9  2  0  0  0  0
 11  9  1  0  0  0  0
 11 12  1  0  0  0  0
 12 38  1  0  0  0  0
 13 39  1  0  0  0  0
 13 12  2  0  0  0  0
 14 20  1  6  0  0  0
 14 13  1  0  0  0  0
 15 16  1  0  0  0  0
 15 14  1  0  0  0  0
 16 11  2  0  0  0  0
 17 15  2  0  0  0  0
 18 19  1  0  0  0  0
 18 17  2  0  0  0  0
 19 20  1  0  0  0  0
 20 21  2  0  0  0  0
 22 41  1  0  0  0  0
 22 19  1  0  0  0  0
 23 18  1  0  0  0  0
 25  1  1  0  0  0  0
 29  3  1  0  0  0  0
 31  5  1  0  0  0  0
 35  6  1  0  0  0  0
 37  8  1  0  0  0  0
 40 16  1  0  0  0  0
 42 22  1  0  0  0  0
 43 22  1  0  0  0  0
 44 23  1  0  0  0  0
M  RAD  1  14   2
M  END
