44196054.xyz
 OpenBabel08132112133D
Sc1nccc(n1)c1ccc(cc1)[N+](=O)[O-]
 23 24  0  0  0  0  0  0  0  0999 V2000
    0.0000    0.0000    0.0000 S   0  0  0  0  0  0  0  0  0  0  0  0
   -0.0000    0.0000    1.7682 C   0  0  0  0  0  0  0  0  0  0  0  0
    1.2159    0.0000    2.3267 N   0  0  0  0  0  0  0  0  0  0  0  0
    1.2418    0.0001    3.6570 C   0  0  0  0  0  0  0  0  0  0  0  0
    0.0841    0.0002    4.4366 C   0  0  0  0  0  0  0  0  0  0  0  0
   -1.1426   -0.0000    3.7541 C   0  0  0  0  0  0  0  0  0  0  0  0
   -1.1657   -0.0000    2.4123 N   0  0  0  0  0  0  0  0  0  0  0  0
   -2.4586   -0.0001    4.4478 C   0  0  0  0  0  0  0  0  0  0  0  0
   -3.6388    0.0027    3.6818 C   0  0  0  0  0  0  0  0  0  0  0  0
   -4.8881    0.0027    4.2937 C   0  0  0  0  0  0  0  0  0  0  0  0
   -4.9522   -0.0003    5.6867 C   0  0  0  0  0  0  0  0  0  0  0  0
   -3.8037   -0.0032    6.4770 C   0  0  0  0  0  0  0  0  0  0  0  0
   -2.5606   -0.0031    5.8508 C   0  0  0  0  0  0  0  0  0  0  0  0
   -6.2741   -0.0003    6.3459 N   0  0  0  0  0  0  0  0  0  0  0  0
   -7.2602    0.0023    5.6280 O   0  0  0  0  0  0  0  0  0  0  0  0
   -6.2942   -0.0030    7.5659 O   0  0  0  0  0  0  0  0  0  0  0  0
   -1.3476   -0.0001   -0.1061 H   0  0  0  0  0  0  0  0  0  0  0  0
    2.2305    0.0002    4.1297 H   0  0  0  0  0  0  0  0  0  0  0  0
    0.1519    0.0005    5.5228 H   0  0  0  0  0  0  0  0  0  0  0  0
   -3.5489    0.0049    2.5961 H   0  0  0  0  0  0  0  0  0  0  0  0
   -5.8122    0.0050    3.7171 H   0  0  0  0  0  0  0  0  0  0  0  0
   -3.9019   -0.0056    7.5616 H   0  0  0  0  0  0  0  0  0  0  0  0
   -1.6656   -0.0056    6.4728 H   0  0  0  0  0  0  0  0  0  0  0  0
  1  2  1  0  0  0  0
  2  3  2  0  0  0  0
  2  7  2  0  0  0  0
  3  4  2  0  0  0  0
  4 18  1  0  0  0  0
  4  5  1  0  0  0  0
  5 19  1  0  0  0  0
  6  5  1  0  0  0  0
  6  8  1  0  0  0  0
  7  6  2  0  0  0  0
  8 13  2  0  0  0  0
  9 10  2  0  0  0  0
  9  8  1  0  0  0  0
 10 11  1  0  0  0  0
 11 14  1  0  0  0  0
 11 12  2  0  0  0  0
 12 22  1  0  0  0  0
 13 23  1  0  0  0  0
 13 12  1  0  0  0  0
 14 16  2  0  0  0  0
 15 14  2  0  0  0  0
 17  1  1  0  0  0  0
 20  9  1  0  0  0  0
 21 10  1  0  0  0  0
M  RAD  1   5   2
M  END
