44553911.xyz
 OpenBabel08132112133D
O=C(C1CCCCC1)Nc1cccc(c1)CNC(=O)c1cccnc1S
 49 51  0  0  1  0  0  0  0  0999 V2000
   -6.7221   -7.4759    1.3600 O   0  0  0  0  0  0  0  0  0  0  0  0
   -7.1797   -6.8511    2.2997 C   0  0  0  0  0  0  0  0  0  0  0  0
   -8.1340   -7.4958    3.3004 C   0  0  0  0  0  0  0  0  0  0  0  0
   -7.3391   -8.0755    4.5011 C   0  0  0  0  0  0  0  0  0  0  0  0
   -8.2442   -8.3343    5.7241 C   0  0  0  0  0  0  0  0  0  0  0  0
   -9.6776   -8.6582    5.2952 C   0  0  0  0  0  0  0  0  0  0  0  0
  -10.3224   -7.4607    4.5643 C   0  0  0  0  0  0  0  0  0  0  0  0
   -9.2807   -6.6099    3.8065 C   0  0  0  0  0  0  0  0  0  0  0  0
   -6.8546   -5.5420    2.5824 N   0  0  0  0  0  0  0  0  0  0  0  0
   -5.9773   -4.6790    1.9042 C   0  0  0  0  0  0  0  0  0  0  0  0
   -5.2600   -5.0527    0.7568 C   0  0  0  0  0  0  0  0  0  0  0  0
   -4.4134   -4.1209    0.1494 C   0  0  0  0  0  0  0  0  0  0  0  0
   -4.2653   -2.8304    0.6547 C   0  0  0  0  0  0  0  0  0  0  0  0
   -4.9765   -2.4527    1.8051 C   0  0  0  0  0  0  0  0  0  0  0  0
   -5.8218   -3.3778    2.4182 C   0  0  0  0  0  0  0  0  0  0  0  0
   -4.8095   -1.0618    2.3816 C   0  0  0  0  0  0  0  0  0  0  0  0
   -3.4479   -0.7923    2.8213 N   0  0  0  0  0  0  0  0  0  0  0  0
   -2.5555   -0.1303    2.0281 C   0  0  0  0  0  0  0  0  0  0  0  0
   -2.8868    0.3383    0.9406 O   0  0  0  0  0  0  0  0  0  0  0  0
   -1.1666   -0.0241    2.5846 C   0  0  1  0  0  0  0  0  0  0  0  0
   -0.9716    0.0495    3.9716 C   0  0  0  0  0  0  0  0  0  0  0  0
    0.3125    0.0891    4.5073 C   0  0  0  0  0  0  0  0  0  0  0  0
    1.3838    0.0359    3.6115 C   0  0  0  0  0  0  0  0  0  0  0  0
    1.2297    0.0000    2.2922 N   0  0  0  0  0  0  0  0  0  0  0  0
   -0.0000    0.0000    1.7666 C   0  0  0  0  0  0  0  0  0  0  0  0
    0.0000    0.0000    0.0000 S   0  0  0  0  0  0  0  0  0  0  0  0
   -8.5726   -8.3322    2.7358 H   0  0  0  0  0  0  0  0  0  0  0  0
   -6.8451   -9.0039    4.1756 H   0  0  0  0  0  0  0  0  0  0  0  0
   -6.5312   -7.3775    4.7786 H   0  0  0  0  0  0  0  0  0  0  0  0
   -8.2611   -7.4428    6.3750 H   0  0  0  0  0  0  0  0  0  0  0  0
   -7.8245   -9.1482    6.3358 H   0  0  0  0  0  0  0  0  0  0  0  0
  -10.2896   -8.9471    6.1639 H   0  0  0  0  0  0  0  0  0  0  0  0
   -9.6580   -9.5380    4.6295 H   0  0  0  0  0  0  0  0  0  0  0  0
  -11.0841   -7.8269    3.8571 H   0  0  0  0  0  0  0  0  0  0  0  0
  -10.8549   -6.8196    5.2856 H   0  0  0  0  0  0  0  0  0  0  0  0
   -9.7580   -6.0680    2.9751 H   0  0  0  0  0  0  0  0  0  0  0  0
   -8.8776   -5.8405    4.4912 H   0  0  0  0  0  0  0  0  0  0  0  0
   -7.3161   -5.1358    3.3870 H   0  0  0  0  0  0  0  0  0  0  0  0
   -5.3776   -6.0579    0.3613 H   0  0  0  0  0  0  0  0  0  0  0  0
   -3.8617   -4.4165   -0.7464 H   0  0  0  0  0  0  0  0  0  0  0  0
   -3.6086   -2.1095    0.1638 H   0  0  0  0  0  0  0  0  0  0  0  0
   -6.3777   -3.0860    3.3155 H   0  0  0  0  0  0  0  0  0  0  0  0
   -5.4959   -0.9159    3.2302 H   0  0  0  0  0  0  0  0  0  0  0  0
   -5.0412   -0.3039    1.6209 H   0  0  0  0  0  0  0  0  0  0  0  0
   -3.0799   -1.3650    3.5713 H   0  0  0  0  0  0  0  0  0  0  0  0
   -1.8400    0.0934    4.6332 H   0  0  0  0  0  0  0  0  0  0  0  0
    0.4801    0.1564    5.5834 H   0  0  0  0  0  0  0  0  0  0  0  0
    2.4165    0.0336    3.9799 H   0  0  0  0  0  0  0  0  0  0  0  0
   -1.3286    0.2685   -0.1096 H   0  0  0  0  0  0  0  0  0  0  0  0
  1  2  2  0  0  0  0
  2  9  1  0  0  0  0
  2  3  1  0  0  0  0
  3  8  1  0  0  0  0
  3  4  1  0  0  0  0
  4 29  1  0  0  0  0
  4  5  1  0  0  0  0
  5 31  1  0  0  0  0
  5 30  1  0  0  0  0
  6  5  1  0  0  0  0
  6 32  1  0  0  0  0
  7 35  1  0  0  0  0
  7  6  1  0  0  0  0
  8 37  1  0  0  0  0
  8  7  1  0  0  0  0
  9 38  1  0  0  0  0
 10 15  1  0  0  0  0
 10  9  1  0  0  0  0
 11 10  2  0  0  0  0
 12 13  2  0  0  0  0
 12 11  1  0  0  0  0
 13 14  1  0  0  0  0
 14 16  1  0  0  0  0
 14 15  2  0  0  0  0
 15 42  1  0  0  0  0
 16 17  1  0  0  0  0
 16 43  1  0  0  0  0
 17 45  1  0  0  0  0
 18 17  1  0  0  0  0
 19 18  2  0  0  0  0
 20 18  1  1  0  0  0
 20 21  1  0  0  0  0
 21 22  2  0  0  0  0
 21 46  1  0  0  0  0
 22 47  1  0  0  0  0
 23 48  1  0  0  0  0
 23 22  1  0  0  0  0
 24 23  2  0  0  0  0
 25 24  2  0  0  0  0
 25 20  1  0  0  0  0
 26 25  1  0  0  0  0
 27  3  1  0  0  0  0
 28  4  1  0  0  0  0
 33  6  1  0  0  0  0
 34  7  1  0  0  0  0
 36  8  1  0  0  0  0
 39 11  1  0  0  0  0
 40 12  1  0  0  0  0
 41 13  1  0  0  0  0
 44 16  1  0  0  0  0
 49 26  1  0  0  0  0
M  RAD  1  20   2
M  END
