45635560.xyz
 OpenBabel08132112133D
CN(C(=O)c1cnc(n1c1ccccc1)S)Cc1cccc2c1cccc2
 46 49  0  0  1  0  0  0  0  0999 V2000
    2.1742   -0.2925    7.3415 C   0  0  0  0  0  0  0  0  0  0  0  0
    1.3072   -0.5301    6.1988 N   0  0  0  0  0  0  0  0  0  0  0  0
    1.6263    0.0817    5.0067 C   0  0  0  0  0  0  0  0  0  0  0  0
    2.6424    0.7581    4.8843 O   0  0  0  0  0  0  0  0  0  0  0  0
    0.6815   -0.0700    3.8745 C   0  0  1  0  0  0  0  0  0  0  0  0
   -0.7009   -0.0990    3.7788 C   0  0  0  0  0  0  0  0  0  0  0  0
   -1.1051   -0.0471    2.4752 N   0  0  0  0  0  0  0  0  0  0  0  0
    0.0000   -0.0000    1.7612 C   0  0  0  0  0  0  0  0  0  0  0  0
    1.1282    0.0000    2.5471 N   0  0  0  0  0  0  0  0  0  0  0  0
    2.4738   -0.0621    2.0657 C   0  0  0  0  0  0  0  0  0  0  0  0
    3.2607    1.0920    2.0230 C   0  0  0  0  0  0  0  0  0  0  0  0
    4.5539    1.0200    1.5048 C   0  0  0  0  0  0  0  0  0  0  0  0
    5.0583   -0.1971    1.0347 C   0  0  0  0  0  0  0  0  0  0  0  0
    4.2672   -1.3480    1.0826 C   0  0  0  0  0  0  0  0  0  0  0  0
    2.9711   -1.2825    1.5990 C   0  0  0  0  0  0  0  0  0  0  0  0
    0.0000    0.0000    0.0000 S   0  0  0  0  0  0  0  0  0  0  0  0
    0.2967   -1.5563    6.3673 C   0  0  0  0  0  0  0  0  0  0  0  0
   -0.9730   -1.0988    7.0639 C   0  0  0  0  0  0  0  0  0  0  0  0
   -1.1857    0.2341    7.3553 C   0  0  0  0  0  0  0  0  0  0  0  0
   -2.3722    0.6702    7.9946 C   0  0  0  0  0  0  0  0  0  0  0  0
   -3.3473   -0.2366    8.3393 C   0  0  0  0  0  0  0  0  0  0  0  0
   -3.1784   -1.6197    8.0539 C   0  0  0  0  0  0  0  0  0  0  0  0
   -1.9766   -2.0639    7.4054 C   0  0  0  0  0  0  0  0  0  0  0  0
   -1.8399   -3.4517    7.1189 C   0  0  0  0  0  0  0  0  0  0  0  0
   -2.8294   -4.3516    7.4582 C   0  0  0  0  0  0  0  0  0  0  0  0
   -4.0098   -3.9109    8.1026 C   0  0  0  0  0  0  0  0  0  0  0  0
   -4.1768   -2.5736    8.3915 C   0  0  0  0  0  0  0  0  0  0  0  0
    2.7527    0.6215    7.1682 H   0  0  0  0  0  0  0  0  0  0  0  0
    1.5681   -0.1867    8.2541 H   0  0  0  0  0  0  0  0  0  0  0  0
    2.8816   -1.1291    7.4862 H   0  0  0  0  0  0  0  0  0  0  0  0
   -1.4202   -0.1147    4.5951 H   0  0  0  0  0  0  0  0  0  0  0  0
    2.8577    2.0246    2.4158 H   0  0  0  0  0  0  0  0  0  0  0  0
    5.1744    1.9183    1.4747 H   0  0  0  0  0  0  0  0  0  0  0  0
    6.0723   -0.2482    0.6314 H   0  0  0  0  0  0  0  0  0  0  0  0
    4.6581   -2.3002    0.7171 H   0  0  0  0  0  0  0  0  0  0  0  0
    2.3344   -2.1683    1.6371 H   0  0  0  0  0  0  0  0  0  0  0  0
    1.3000    0.3487   -0.1327 H   0  0  0  0  0  0  0  0  0  0  0  0
    0.7494   -2.3796    6.9479 H   0  0  0  0  0  0  0  0  0  0  0  0
    0.0466   -1.9798    5.3840 H   0  0  0  0  0  0  0  0  0  0  0  0
   -0.4260    0.9663    7.0767 H   0  0  0  0  0  0  0  0  0  0  0  0
   -2.5057    1.7330    8.2088 H   0  0  0  0  0  0  0  0  0  0  0  0
   -4.2660    0.0911    8.8321 H   0  0  0  0  0  0  0  0  0  0  0  0
   -0.9424   -3.8170    6.6186 H   0  0  0  0  0  0  0  0  0  0  0  0
   -2.7026   -5.4118    7.2266 H   0  0  0  0  0  0  0  0  0  0  0  0
   -4.7865   -4.6323    8.3665 H   0  0  0  0  0  0  0  0  0  0  0  0
   -5.0869   -2.2235    8.8856 H   0  0  0  0  0  0  0  0  0  0  0  0
  1 30  1  0  0  0  0
  1 29  1  0  0  0  0
  2 17  1  0  0  0  0
  2  1  1  0  0  0  0
  3  2  1  0  0  0  0
  4  3  2  0  0  0  0
  5  3  1  1  0  0  0
  6  5  1  0  0  0  0
  6 31  1  0  0  0  0
  7  6  2  0  0  0  0
  8  7  2  0  0  0  0
  8  9  1  0  0  0  0
  9  5  1  0  0  0  0
 10  9  1  0  0  0  0
 11 10  1  0  0  0  0
 11 32  1  0  0  0  0
 12 11  2  0  0  0  0
 13 14  2  0  0  0  0
 13 12  1  0  0  0  0
 14 15  1  0  0  0  0
 15 36  1  0  0  0  0
 15 10  2  0  0  0  0
 16  8  1  0  0  0  0
 17 38  1  0  0  0  0
 17 18  1  0  0  0  0
 18 19  2  0  0  0  0
 18 23  1  0  0  0  0
 19 20  1  0  0  0  0
 20 41  1  0  0  0  0
 20 21  2  0  0  0  0
 21 42  1  0  0  0  0
 22 21  1  0  0  0  0
 22 27  2  0  0  0  0
 23 22  1  0  0  0  0
 24 23  2  0  0  0  0
 24 25  1  0  0  0  0
 25 26  2  0  0  0  0
 26 45  1  0  0  0  0
 26 27  1  0  0  0  0
 27 46  1  0  0  0  0
 28  1  1  0  0  0  0
 33 12  1  0  0  0  0
 34 13  1  0  0  0  0
 35 14  1  0  0  0  0
 37 16  1  0  0  0  0
 39 17  1  0  0  0  0
 40 19  1  0  0  0  0
 43 24  1  0  0  0  0
 44 25  1  0  0  0  0
M  RAD  1   5   2
M  END
