46013147.xyz
 OpenBabel08132112133D
SC1=NC(=O)/C(=C/c2cc3OCOc3cc2Cl)/S1
 24 26  0  0  0  0  0  0  0  0999 V2000
    0.0000    0.0000    0.0000 S   0  0  0  0  0  0  0  0  0  0  0  0
   -0.0000   -0.0000    1.7477 C   0  0  0  0  0  0  0  0  0  0  0  0
   -1.0561   -0.0167    2.4755 N   0  0  0  0  0  0  0  0  0  0  0  0
   -0.7478   -0.0056    3.8495 C   0  0  0  0  0  0  0  0  0  0  0  0
   -1.5676   -0.0066    4.7356 O   0  0  0  0  0  0  0  0  0  0  0  0
    0.7527    0.0332    4.0898 C   0  0  0  0  0  0  0  0  0  0  0  0
    1.2323    0.1903    5.3413 C   0  0  0  0  0  0  0  0  0  0  0  0
    2.5899    0.3764    5.8546 C   0  0  0  0  0  0  0  0  0  0  0  0
    2.7376    1.3621    6.8742 C   0  0  0  0  0  0  0  0  0  0  0  0
    3.9931    1.6195    7.3723 C   0  0  0  0  0  0  0  0  0  0  0  0
    4.3750    2.5221    8.3213 O   0  0  0  0  0  0  0  0  0  0  0  0
    5.7851    2.3835    8.4763 C   0  0  0  0  0  0  0  0  0  0  0  0
    6.2222    1.3588    7.5798 O   0  0  0  0  0  0  0  0  0  0  0  0
    5.1173    0.9165    6.9239 C   0  0  0  0  0  0  0  0  0  0  0  0
    5.0175   -0.0772    5.9717 C   0  0  0  0  0  0  0  0  0  0  0  0
    3.7350   -0.3390    5.4489 C   0  0  0  0  0  0  0  0  0  0  0  0
    3.6130   -1.6795    4.3364 Cl  0  0  0  0  0  0  0  0  0  0  0  0
    1.6017    0.0000    2.5472 S   0  0  0  0  0  0  0  0  0  0  0  0
   -1.3511   -0.0204   -0.0845 H   0  0  0  0  0  0  0  0  0  0  0  0
    0.4297    0.2893    6.0828 H   0  0  0  0  0  0  0  0  0  0  0  0
    1.8682    1.9165    7.2286 H   0  0  0  0  0  0  0  0  0  0  0  0
    6.2850    3.3345    8.2214 H   0  0  0  0  0  0  0  0  0  0  0  0
    6.0204    2.0897    9.5142 H   0  0  0  0  0  0  0  0  0  0  0  0
    5.8821   -0.6531    5.6454 H   0  0  0  0  0  0  0  0  0  0  0  0
  1  2  1  0  0  0  0
  2  3  2  0  0  0  0
  2 18  1  0  0  0  0
  3  4  2  0  0  0  0
  4  6  1  0  0  0  0
  4  5  2  0  0  0  0
  6  7  2  0  0  0  0
  7  8  1  0  0  0  0
  7 20  1  0  0  0  0
  8  9  1  0  0  0  0
  9 21  1  0  0  0  0
  9 10  2  0  0  0  0
 10 11  1  0  0  0  0
 11 12  1  0  0  0  0
 12 23  1  0  0  0  0
 13 12  1  0  0  0  0
 14 10  1  0  0  0  0
 14 13  1  0  0  0  0
 15 14  2  0  0  0  0
 16  8  2  0  0  0  0
 16 15  1  0  0  0  0
 17 16  1  0  0  0  0
 18  6  1  0  0  0  0
 19  1  1  0  0  0  0
 22 12  1  0  0  0  0
 24 15  1  0  0  0  0
M  END
