46105323.xyz
 OpenBabel08132112133D
CCCOc1cc(F)ccc1S
 23 23  0  0  0  0  0  0  0  0999 V2000
    6.1020   -0.0013    2.0930 C   0  0  0  0  0  0  0  0  0  0  0  0
    4.7128   -0.0005    1.4584 C   0  0  0  0  0  0  0  0  0  0  0  0
    3.6052   -0.0003    2.4971 C   0  0  0  0  0  0  0  0  0  0  0  0
    2.3592    0.0000    1.8191 O   0  0  0  0  0  0  0  0  0  0  0  0
    1.2022   -0.0000    2.5259 C   0  0  0  0  0  0  0  0  0  0  0  0
    1.1528   -0.0001    3.9250 C   0  0  0  0  0  0  0  0  0  0  0  0
   -0.0864   -0.0003    4.5638 C   0  0  0  0  0  0  0  0  0  0  0  0
   -0.1102   -0.0004    5.9065 F   0  0  0  0  0  0  0  0  0  0  0  0
   -1.2799   -0.0004    3.8556 C   0  0  0  0  0  0  0  0  0  0  0  0
   -1.2205   -0.0002    2.4588 C   0  0  0  0  0  0  0  0  0  0  0  0
    0.0000   -0.0000    1.7771 C   0  0  0  0  0  0  0  0  0  0  0  0
    0.0000    0.0000    0.0000 S   0  0  0  0  0  0  0  0  0  0  0  0
    6.8884   -0.0017    1.3235 H   0  0  0  0  0  0  0  0  0  0  0  0
    6.2569    0.8880    2.7260 H   0  0  0  0  0  0  0  0  0  0  0  0
    6.2560   -0.8909    2.7258 H   0  0  0  0  0  0  0  0  0  0  0  0
    4.5845    0.8836    0.8118 H   0  0  0  0  0  0  0  0  0  0  0  0
    4.5837   -0.8843    0.8115 H   0  0  0  0  0  0  0  0  0  0  0  0
    3.6793   -0.8923    3.1472 H   0  0  0  0  0  0  0  0  0  0  0  0
    3.6798    0.8916    3.1474 H   0  0  0  0  0  0  0  0  0  0  0  0
    2.0532    0.0000    4.5363 H   0  0  0  0  0  0  0  0  0  0  0  0
   -2.2309   -0.0005    4.3891 H   0  0  0  0  0  0  0  0  0  0  0  0
   -2.1487   -0.0002    1.8827 H   0  0  0  0  0  0  0  0  0  0  0  0
    1.3434    0.0017   -0.1288 H   0  0  0  0  0  0  0  0  0  0  0  0
  1 15  1  0  0  0  0
  1 14  1  0  0  0  0
  2  1  1  0  0  0  0
  2  3  1  0  0  0  0
  3 18  1  0  0  0  0
  3 19  1  0  0  0  0
  4  3  1  0  0  0  0
  4  5  1  0  0  0  0
  5  6  2  0  0  0  0
  6 20  1  0  0  0  0
  6  7  1  0  0  0  0
  7  8  1  0  0  0  0
  9 21  1  0  0  0  0
  9  7  2  0  0  0  0
 10  9  1  0  0  0  0
 11 10  2  0  0  0  0
 11  5  1  0  0  0  0
 12 11  1  0  0  0  0
 13  1  1  0  0  0  0
 16  2  1  0  0  0  0
 17  2  1  0  0  0  0
 22 10  1  0  0  0  0
 23 12  1  0  0  0  0
M  END
