46493010.xyz
 OpenBabel08132112133D
CCn1cc(c2c1cccc2)/C=C/1\C(=O)N=C(N(C1=O)c1cccc2c1cccc2)S
 50 54  0  0  0  0  0  0  0  0999 V2000
   -4.8164    1.5754    8.8480 C   0  0  0  0  0  0  0  0  0  0  0  0
   -4.3524    0.1563    8.5278 C   0  0  0  0  0  0  0  0  0  0  0  0
   -2.9387    0.0894    8.1867 N   0  0  0  0  0  0  0  0  0  0  0  0
   -2.4420    0.0697    6.9260 C   0  0  0  0  0  0  0  0  0  0  0  0
   -1.0374    0.0812    6.9552 C   0  0  0  0  0  0  0  0  0  0  0  0
   -0.6774    0.1163    8.3714 C   0  0  0  0  0  0  0  0  0  0  0  0
   -1.8887    0.1253    9.1072 C   0  0  0  0  0  0  0  0  0  0  0  0
   -1.9202    0.1560   10.5045 C   0  0  0  0  0  0  0  0  0  0  0  0
   -0.6956    0.1760   11.1716 C   0  0  0  0  0  0  0  0  0  0  0  0
    0.5199    0.1666   10.4600 C   0  0  0  0  0  0  0  0  0  0  0  0
    0.5405    0.1363    9.0663 C   0  0  0  0  0  0  0  0  0  0  0  0
   -0.0739    0.0599    5.9141 C   0  0  0  0  0  0  0  0  0  0  0  0
   -0.1161    0.0329    4.5324 C   0  0  0  0  0  0  0  0  0  0  0  0
   -1.3341    0.0220    3.6946 C   0  0  0  0  0  0  0  0  0  0  0  0
   -2.4670    0.0288    4.1582 O   0  0  0  0  0  0  0  0  0  0  0  0
   -1.1663    0.0069    2.3101 N   0  0  0  0  0  0  0  0  0  0  0  0
   -0.0000   -0.0000    1.7737 C   0  0  0  0  0  0  0  0  0  0  0  0
    1.2030    0.0000    2.4644 N   0  0  0  0  0  0  0  0  0  0  0  0
    1.2126    0.0196    3.8884 C   0  0  0  0  0  0  0  0  0  0  0  0
    2.2820    0.0294    4.4675 O   0  0  0  0  0  0  0  0  0  0  0  0
    2.4833    0.0301    1.8150 C   0  0  0  0  0  0  0  0  0  0  0  0
    3.1411   -1.1515    1.5487 C   0  0  0  0  0  0  0  0  0  0  0  0
    4.4024   -1.1363    0.9089 C   0  0  0  0  0  0  0  0  0  0  0  0
    4.9835    0.0618    0.5529 C   0  0  0  0  0  0  0  0  0  0  0  0
    4.3348    1.2979    0.8224 C   0  0  0  0  0  0  0  0  0  0  0  0
    3.0574    1.2911    1.4743 C   0  0  0  0  0  0  0  0  0  0  0  0
    2.4103    2.5271    1.7410 C   0  0  0  0  0  0  0  0  0  0  0  0
    3.0015    3.7189    1.3807 C   0  0  0  0  0  0  0  0  0  0  0  0
    4.2640    3.7305    0.7365 C   0  0  0  0  0  0  0  0  0  0  0  0
    4.9142    2.5466    0.4646 C   0  0  0  0  0  0  0  0  0  0  0  0
    0.0000    0.0000    0.0000 S   0  0  0  0  0  0  0  0  0  0  0  0
   -4.2574    1.9952    9.6977 H   0  0  0  0  0  0  0  0  0  0  0  0
   -4.6685    2.2369    7.9809 H   0  0  0  0  0  0  0  0  0  0  0  0
   -5.8868    1.5762    9.1056 H   0  0  0  0  0  0  0  0  0  0  0  0
   -4.9135   -0.2532    7.6755 H   0  0  0  0  0  0  0  0  0  0  0  0
   -4.5283   -0.5158    9.3827 H   0  0  0  0  0  0  0  0  0  0  0  0
   -3.0753    0.0451    6.0440 H   0  0  0  0  0  0  0  0  0  0  0  0
   -2.8610    0.1648   11.0576 H   0  0  0  0  0  0  0  0  0  0  0  0
   -0.6798    0.2002   12.2635 H   0  0  0  0  0  0  0  0  0  0  0  0
    1.4622    0.1836   11.0120 H   0  0  0  0  0  0  0  0  0  0  0  0
    1.4909    0.1285    8.5280 H   0  0  0  0  0  0  0  0  0  0  0  0
    0.9577    0.0684    6.2827 H   0  0  0  0  0  0  0  0  0  0  0  0
    2.6743   -2.0951    1.8355 H   0  0  0  0  0  0  0  0  0  0  0  0
    4.9112   -2.0799    0.7019 H   0  0  0  0  0  0  0  0  0  0  0  0
    5.9574    0.0783    0.0575 H   0  0  0  0  0  0  0  0  0  0  0  0
    1.4395    2.5242    2.2380 H   0  0  0  0  0  0  0  0  0  0  0  0
    2.4949    4.6629    1.5936 H   0  0  0  0  0  0  0  0  0  0  0  0
    4.7196    4.6832    0.4570 H   0  0  0  0  0  0  0  0  0  0  0  0
    5.8882    2.5491   -0.0310 H   0  0  0  0  0  0  0  0  0  0  0  0
    1.3382   -0.0355   -0.1843 H   0  0  0  0  0  0  0  0  0  0  0  0
  1 34  1  0  0  0  0
  1 32  1  0  0  0  0
  2  1  1  0  0  0  0
  2 36  1  0  0  0  0
  3  2  1  0  0  0  0
  3  7  1  0  0  0  0
  4  5  2  0  0  0  0
  4  3  1  0  0  0  0
  5  6  1  0  0  0  0
  6 11  2  0  0  0  0
  6  7  1  0  0  0  0
  7  8  2  0  0  0  0
  8 38  1  0  0  0  0
  8  9  1  0  0  0  0
  9 39  1  0  0  0  0
 10 40  1  0  0  0  0
 10  9  2  0  0  0  0
 11 10  1  0  0  0  0
 12 42  1  0  0  0  0
 12  5  1  0  0  0  0
 13 12  2  0  0  0  0
 14 15  2  0  0  0  0
 14 13  1  0  0  0  0
 16 14  2  0  0  0  0
 17 16  2  0  0  0  0
 17 18  1  0  0  0  0
 18 19  1  0  0  0  0
 19 20  2  0  0  0  0
 19 13  1  0  0  0  0
 21 18  1  0  0  0  0
 22 21  1  0  0  0  0
 22 43  1  0  0  0  0
 23 22  2  0  0  0  0
 24 25  2  0  0  0  0
 24 23  1  0  0  0  0
 25 26  1  0  0  0  0
 26 27  1  0  0  0  0
 26 21  2  0  0  0  0
 27 46  1  0  0  0  0
 28 47  1  0  0  0  0
 28 27  2  0  0  0  0
 29 28  1  0  0  0  0
 30 29  2  0  0  0  0
 30 25  1  0  0  0  0
 31 17  1  0  0  0  0
 33  1  1  0  0  0  0
 35  2  1  0  0  0  0
 37  4  1  0  0  0  0
 41 11  1  0  0  0  0
 44 23  1  0  0  0  0
 45 24  1  0  0  0  0
 48 29  1  0  0  0  0
 49 30  1  0  0  0  0
 50 31  1  0  0  0  0
M  END
