46506649.xyz
 OpenBabel08132112133D
CCOc1ccc(cc1)N1C(=NC(=O)/C(=C\c2ccc(cc2)OCc2cccc(c2)C(=O)O)/C1=O)S
 58 61  0  0  0  0  0  0  0  0999 V2000
   -7.4713   -1.5904   -0.1537 C   0  0  0  0  0  0  0  0  0  0  0  0
   -6.5688   -1.0410   -1.2486 C   0  0  0  0  0  0  0  0  0  0  0  0
   -5.8504    0.1159   -0.8359 O   0  0  0  0  0  0  0  0  0  0  0  0
   -4.7517    0.0041   -0.0564 C   0  0  0  0  0  0  0  0  0  0  0  0
   -4.1729    1.2167    0.3617 C   0  0  0  0  0  0  0  0  0  0  0  0
   -3.0312    1.2151    1.1509 C   0  0  0  0  0  0  0  0  0  0  0  0
   -2.4443    0.0026    1.5316 C   0  0  0  0  0  0  0  0  0  0  0  0
   -3.0166   -1.2023    1.1275 C   0  0  0  0  0  0  0  0  0  0  0  0
   -4.1650   -1.2111    0.3348 C   0  0  0  0  0  0  0  0  0  0  0  0
   -1.2589   -0.0000    2.3447 N   0  0  0  0  0  0  0  0  0  0  0  0
   -0.0000    0.0000    1.7760 C   0  0  0  0  0  0  0  0  0  0  0  0
    1.1151   -0.0000    2.4131 N   0  0  0  0  0  0  0  0  0  0  0  0
    1.1561    0.0003    3.8072 C   0  0  0  0  0  0  0  0  0  0  0  0
    2.2421    0.0003    4.3643 O   0  0  0  0  0  0  0  0  0  0  0  0
   -0.1435    0.0006    4.5370 C   0  0  0  0  0  0  0  0  0  0  0  0
   -0.3549    0.0011    5.8953 C   0  0  0  0  0  0  0  0  0  0  0  0
    0.4383    0.0009    7.1050 C   0  0  0  0  0  0  0  0  0  0  0  0
    1.8484   -0.0011    7.2021 C   0  0  0  0  0  0  0  0  0  0  0  0
    2.4865   -0.0013    8.4386 C   0  0  0  0  0  0  0  0  0  0  0  0
    1.7332    0.0004    9.6242 C   0  0  0  0  0  0  0  0  0  0  0  0
    0.3275    0.0025    9.5547 C   0  0  0  0  0  0  0  0  0  0  0  0
   -0.2976    0.0028    8.3219 C   0  0  0  0  0  0  0  0  0  0  0  0
    2.2666    0.0018   10.8653 O   0  0  0  0  0  0  0  0  0  0  0  0
    3.6714   -0.0170   11.0250 C   0  0  0  0  0  0  0  0  0  0  0  0
    4.0161   -0.0359   12.4937 C   0  0  0  0  0  0  0  0  0  0  0  0
    5.3479    0.1473   12.8895 C   0  0  0  0  0  0  0  0  0  0  0  0
    5.7014    0.0891   14.2392 C   0  0  0  0  0  0  0  0  0  0  0  0
    4.7275   -0.1442   15.2096 C   0  0  0  0  0  0  0  0  0  0  0  0
    3.3890   -0.3036   14.8291 C   0  0  0  0  0  0  0  0  0  0  0  0
    3.0430   -0.2609   13.4703 C   0  0  0  0  0  0  0  0  0  0  0  0
    2.3782   -0.5507   15.9142 C   0  0  0  0  0  0  0  0  0  0  0  0
    2.6782   -0.9042   17.0237 O   0  0  0  0  0  0  0  0  0  0  0  0
    1.0830   -0.3468   15.5856 O   0  0  0  0  0  0  0  0  0  0  0  0
   -1.4122    0.0005    3.7504 C   0  0  0  0  0  0  0  0  0  0  0  0
   -2.5297    0.0005    4.2259 O   0  0  0  0  0  0  0  0  0  0  0  0
    0.0000    0.0000    0.0000 S   0  0  0  0  0  0  0  0  0  0  0  0
   -8.1693   -0.8123    0.1905 H   0  0  0  0  0  0  0  0  0  0  0  0
   -6.8954   -1.9398    0.7161 H   0  0  0  0  0  0  0  0  0  0  0  0
   -8.0591   -2.4387   -0.5388 H   0  0  0  0  0  0  0  0  0  0  0  0
   -5.8714   -1.8103   -1.6246 H   0  0  0  0  0  0  0  0  0  0  0  0
   -7.1701   -0.7034   -2.1055 H   0  0  0  0  0  0  0  0  0  0  0  0
   -4.6455    2.1489    0.0487 H   0  0  0  0  0  0  0  0  0  0  0  0
   -2.5821    2.1549    1.4767 H   0  0  0  0  0  0  0  0  0  0  0  0
   -2.5583   -2.1436    1.4360 H   0  0  0  0  0  0  0  0  0  0  0  0
   -4.5919   -2.1663    0.0332 H   0  0  0  0  0  0  0  0  0  0  0  0
   -1.4289    0.0019    6.1136 H   0  0  0  0  0  0  0  0  0  0  0  0
    2.4279   -0.0021    6.2816 H   0  0  0  0  0  0  0  0  0  0  0  0
    3.5755   -0.0018    8.4657 H   0  0  0  0  0  0  0  0  0  0  0  0
   -0.2442    0.0040   10.4840 H   0  0  0  0  0  0  0  0  0  0  0  0
   -1.3894    0.0041    8.2790 H   0  0  0  0  0  0  0  0  0  0  0  0
    4.0949   -0.9098   10.5273 H   0  0  0  0  0  0  0  0  0  0  0  0
    4.1232    0.8697   10.5436 H   0  0  0  0  0  0  0  0  0  0  0  0
    6.1170    0.3329   12.1343 H   0  0  0  0  0  0  0  0  0  0  0  0
    6.7439    0.2278   14.5339 H   0  0  0  0  0  0  0  0  0  0  0  0
    4.9780   -0.2027   16.2698 H   0  0  0  0  0  0  0  0  0  0  0  0
    2.0172   -0.4246   13.1359 H   0  0  0  0  0  0  0  0  0  0  0  0
    1.0183    0.0508   14.7061 H   0  0  0  0  0  0  0  0  0  0  0  0
    1.3530    0.0059   -0.0330 H   0  0  0  0  0  0  0  0  0  0  0  0
  1 37  1  0  0  0  0
  1 38  1  0  0  0  0
  2  3  1  0  0  0  0
  2  1  1  0  0  0  0
  3  4  1  0  0  0  0
  4  9  2  0  0  0  0
  4  5  1  0  0  0  0
  5  6  2  0  0  0  0
  6 43  1  0  0  0  0
  6  7  1  0  0  0  0
  7 10  1  0  0  0  0
  8 44  1  0  0  0  0
  8  7  2  0  0  0  0
  9  8  1  0  0  0  0
 10 34  1  0  0  0  0
 11 10  1  0  0  0  0
 11 12  2  0  0  0  0
 12 13  2  0  0  0  0
 13 14  2  0  0  0  0
 13 15  1  0  0  0  0
 15 16  2  0  0  0  0
 16 46  1  0  0  0  0
 16 17  1  0  0  0  0
 17 18  2  0  0  0  0
 17 22  1  0  0  0  0
 18 19  1  0  0  0  0
 19 48  1  0  0  0  0
 19 20  2  0  0  0  0
 20 23  1  0  0  0  0
 21 20  1  0  0  0  0
 21 49  1  0  0  0  0
 22 21  2  0  0  0  0
 23 24  1  0  0  0  0
 24 25  1  0  0  0  0
 25 26  2  0  0  0  0
 25 30  1  0  0  0  0
 26 27  1  0  0  0  0
 27 54  1  0  0  0  0
 27 28  2  0  0  0  0
 28 55  1  0  0  0  0
 29 28  1  0  0  0  0
 29 31  1  0  0  0  0
 30 29  2  0  0  0  0
 31 32  2  0  0  0  0
 33 31  1  0  0  0  0
 34 35  2  0  0  0  0
 34 15  1  0  0  0  0
 36 11  1  0  0  0  0
 39  1  1  0  0  0  0
 40  2  1  0  0  0  0
 41  2  1  0  0  0  0
 42  5  1  0  0  0  0
 45  9  1  0  0  0  0
 47 18  1  0  0  0  0
 50 22  1  0  0  0  0
 51 24  1  0  0  0  0
 52 24  1  0  0  0  0
 53 26  1  0  0  0  0
 56 30  1  0  0  0  0
 57 33  1  0  0  0  0
 58 36  1  0  0  0  0
M  END
