46503240.xyz
 OpenBabel08132112133D
CCOc1ccc(cc1)N1C(=NC(=O)/C(=C\c2ccc(c(c2)OC)OCC(=O)O)/C1=O)S
 52 54  0  0  0  0  0  0  0  0999 V2000
    6.0860   -2.2070   -1.8746 C   0  0  0  0  0  0  0  0  0  0  0  0
    6.6832   -1.7877   -0.5394 C   0  0  0  0  0  0  0  0  0  0  0  0
    6.1572   -0.5517   -0.0690 O   0  0  0  0  0  0  0  0  0  0  0  0
    4.9486   -0.5004    0.5334 C   0  0  0  0  0  0  0  0  0  0  0  0
    4.5077    0.7819    0.9114 C   0  0  0  0  0  0  0  0  0  0  0  0
    3.2857    0.9468    1.5494 C   0  0  0  0  0  0  0  0  0  0  0  0
    2.4770   -0.1653    1.8153 C   0  0  0  0  0  0  0  0  0  0  0  0
    2.9140   -1.4395    1.4559 C   0  0  0  0  0  0  0  0  0  0  0  0
    4.1389   -1.6150    0.8086 C   0  0  0  0  0  0  0  0  0  0  0  0
    1.2061   -0.0000    2.4626 N   0  0  0  0  0  0  0  0  0  0  0  0
   -0.0000   -0.0000    1.7728 C   0  0  0  0  0  0  0  0  0  0  0  0
   -1.1636    0.0040    2.3126 N   0  0  0  0  0  0  0  0  0  0  0  0
   -1.3312    0.0137    3.6956 C   0  0  0  0  0  0  0  0  0  0  0  0
   -2.4361   -0.1931    4.1664 O   0  0  0  0  0  0  0  0  0  0  0  0
   -0.1210    0.2969    4.5191 C   0  0  0  0  0  0  0  0  0  0  0  0
   -0.0544    0.6387    5.8466 C   0  0  0  0  0  0  0  0  0  0  0  0
   -0.9849    0.8897    6.9298 C   0  0  0  0  0  0  0  0  0  0  0  0
   -2.3895    0.7157    6.9055 C   0  0  0  0  0  0  0  0  0  0  0  0
   -3.1556    1.0305    8.0208 C   0  0  0  0  0  0  0  0  0  0  0  0
   -2.5620    1.5092    9.1930 C   0  0  0  0  0  0  0  0  0  0  0  0
   -1.1591    1.6556    9.2531 C   0  0  0  0  0  0  0  0  0  0  0  0
   -0.3965    1.3539    8.1327 C   0  0  0  0  0  0  0  0  0  0  0  0
   -0.5440    2.1057   10.3940 O   0  0  0  0  0  0  0  0  0  0  0  0
   -0.4834    1.1587   11.4550 C   0  0  0  0  0  0  0  0  0  0  0  0
   -3.3521    1.7699   10.2771 O   0  0  0  0  0  0  0  0  0  0  0  0
   -3.3332    3.0809   10.7950 C   0  0  0  0  0  0  0  0  0  0  0  0
   -4.1142    4.0451    9.9176 C   0  0  0  0  0  0  0  0  0  0  0  0
   -4.6597    3.7706    8.8831 O   0  0  0  0  0  0  0  0  0  0  0  0
   -4.1109    5.2764   10.4624 O   0  0  0  0  0  0  0  0  0  0  0  0
    1.2166    0.2001    3.8668 C   0  0  0  0  0  0  0  0  0  0  0  0
    2.2812    0.2803    4.4458 O   0  0  0  0  0  0  0  0  0  0  0  0
    0.0000    0.0000    0.0000 S   0  0  0  0  0  0  0  0  0  0  0  0
    6.2387   -1.4170   -2.6253 H   0  0  0  0  0  0  0  0  0  0  0  0
    5.0057   -2.4013   -1.7986 H   0  0  0  0  0  0  0  0  0  0  0  0
    6.5737   -3.1266   -2.2345 H   0  0  0  0  0  0  0  0  0  0  0  0
    6.5577   -2.5726    0.2270 H   0  0  0  0  0  0  0  0  0  0  0  0
    7.7632   -1.6080   -0.6445 H   0  0  0  0  0  0  0  0  0  0  0  0
    5.1543    1.6337    0.6954 H   0  0  0  0  0  0  0  0  0  0  0  0
    2.9465    1.9404    1.8466 H   0  0  0  0  0  0  0  0  0  0  0  0
    2.2828   -2.3032    1.6730 H   0  0  0  0  0  0  0  0  0  0  0  0
    4.4500   -2.6207    0.5304 H   0  0  0  0  0  0  0  0  0  0  0  0
    0.9860    0.7842    6.1575 H   0  0  0  0  0  0  0  0  0  0  0  0
   -2.8531    0.3383    5.9974 H   0  0  0  0  0  0  0  0  0  0  0  0
   -4.2415    0.9342    8.0056 H   0  0  0  0  0  0  0  0  0  0  0  0
    0.6850    1.4845    8.2066 H   0  0  0  0  0  0  0  0  0  0  0  0
    0.0983    0.2699   11.1539 H   0  0  0  0  0  0  0  0  0  0  0  0
    0.0223    1.6526   12.2959 H   0  0  0  0  0  0  0  0  0  0  0  0
   -1.4907    0.8375   11.7690 H   0  0  0  0  0  0  0  0  0  0  0  0
   -3.8104    3.0483   11.7861 H   0  0  0  0  0  0  0  0  0  0  0  0
   -2.3083    3.4645   10.9283 H   0  0  0  0  0  0  0  0  0  0  0  0
   -4.6178    5.8543    9.8661 H   0  0  0  0  0  0  0  0  0  0  0  0
    1.3360    0.0953   -0.1808 H   0  0  0  0  0  0  0  0  0  0  0  0
  1 34  1  0  0  0  0
  1  2  1  0  0  0  0
  2  3  1  0  0  0  0
  2 36  1  0  0  0  0
  3  4  1  0  0  0  0
  4  9  2  0  0  0  0
  4  5  1  0  0  0  0
  5  6  2  0  0  0  0
  6  7  1  0  0  0  0
  6 39  1  0  0  0  0
  7 10  1  0  0  0  0
  8 40  1  0  0  0  0
  8  7  2  0  0  0  0
  9  8  1  0  0  0  0
 10 30  1  0  0  0  0
 11 12  2  0  0  0  0
 11 10  1  0  0  0  0
 12 13  2  0  0  0  0
 13 14  2  0  0  0  0
 13 15  1  0  0  0  0
 15 16  2  0  0  0  0
 16 42  1  0  0  0  0
 16 17  1  0  0  0  0
 17 22  1  0  0  0  0
 18 17  2  0  0  0  0
 18 19  1  0  0  0  0
 19 20  2  0  0  0  0
 20 21  1  0  0  0  0
 20 25  1  0  0  0  0
 21 23  1  0  0  0  0
 22 45  1  0  0  0  0
 22 21  2  0  0  0  0
 23 24  1  0  0  0  0
 24 48  1  0  0  0  0
 24 47  1  0  0  0  0
 25 26  1  0  0  0  0
 26 50  1  0  0  0  0
 26 49  1  0  0  0  0
 27 29  1  0  0  0  0
 27 26  1  0  0  0  0
 28 27  2  0  0  0  0
 30 31  2  0  0  0  0
 30 15  1  0  0  0  0
 32 11  1  0  0  0  0
 33  1  1  0  0  0  0
 35  1  1  0  0  0  0
 37  2  1  0  0  0  0
 38  5  1  0  0  0  0
 41  9  1  0  0  0  0
 43 18  1  0  0  0  0
 44 19  1  0  0  0  0
 46 24  1  0  0  0  0
 51 29  1  0  0  0  0
 52 32  1  0  0  0  0
M  END
