46529765.xyz
 OpenBabel08132112133D
O=C1N=C(S)N(C(=O)/C/1=C/NN1CCCCC1c1cccnc1)c1ccccc1
 50 53  0  0  1  0  0  0  0  0999 V2000
    2.2624   -0.2088    4.3647 O   0  0  0  0  0  0  0  0  0  0  0  0
    1.1777   -0.1440    3.7760 C   0  0  0  0  0  0  0  0  0  0  0  0
    1.1349    0.0000    2.3953 N   0  0  0  0  0  0  0  0  0  0  0  0
    0.0000   -0.0000    1.7797 C   0  0  0  0  0  0  0  0  0  0  0  0
    0.0000    0.0000    0.0000 S   0  0  0  0  0  0  0  0  0  0  0  0
   -1.2468   -0.0422    2.3662 N   0  0  0  0  0  0  0  0  0  0  0  0
   -1.3713   -0.1818    3.7844 C   0  0  0  0  0  0  0  0  0  0  0  0
   -2.4707   -0.2334    4.2971 O   0  0  0  0  0  0  0  0  0  0  0  0
   -0.0963   -0.3144    4.4731 C   0  0  0  0  0  0  0  0  0  0  0  0
   -0.1395   -0.9213    5.7152 C   0  0  0  0  0  0  0  0  0  0  0  0
    0.9347   -1.2104    6.4579 N   0  0  0  0  0  0  0  0  0  0  0  0
    0.8622   -2.3867    7.2168 N   0  0  0  0  0  0  0  0  0  0  0  0
    1.3803   -2.2258    8.5767 C   0  0  0  0  0  0  0  0  0  0  0  0
    2.9071   -2.1353    8.6506 C   0  0  0  0  0  0  0  0  0  0  0  0
    3.5385   -3.3434    7.9530 C   0  0  0  0  0  0  0  0  0  0  0  0
    3.0156   -3.4693    6.5187 C   0  0  0  0  0  0  0  0  0  0  0  0
    1.4804   -3.5342    6.4856 C   0  0  2  0  0  0  0  0  0  0  0  0
    0.8878   -3.6169    5.0896 C   0  0  2  0  0  0  0  0  0  0  0  0
    1.6216   -3.3299    3.9346 C   0  0  0  0  0  0  0  0  0  0  0  0
    0.9682   -3.2868    2.7025 C   0  0  0  0  0  0  0  0  0  0  0  0
   -0.4032   -3.5361    2.6657 C   0  0  0  0  0  0  0  0  0  0  0  0
   -1.1203   -3.8331    3.7548 N   0  0  0  0  0  0  0  0  0  0  0  0
   -0.4852   -3.8734    4.9261 C   0  0  0  0  0  0  0  0  0  0  0  0
   -2.4559   -0.0635    1.5893 C   0  0  0  0  0  0  0  0  0  0  0  0
   -3.2306   -1.2283    1.5621 C   0  0  0  0  0  0  0  0  0  0  0  0
   -4.3984   -1.2541    0.8004 C   0  0  0  0  0  0  0  0  0  0  0  0
   -4.7902   -0.1259    0.0717 C   0  0  0  0  0  0  0  0  0  0  0  0
   -4.0201    1.0385    0.1178 C   0  0  0  0  0  0  0  0  0  0  0  0
   -2.8549    1.0764    0.8873 C   0  0  0  0  0  0  0  0  0  0  0  0
    1.3525   -0.0062   -0.0279 H   0  0  0  0  0  0  0  0  0  0  0  0
   -1.0989   -1.2723    6.1025 H   0  0  0  0  0  0  0  0  0  0  0  0
    1.8261   -0.9037    6.0326 H   0  0  0  0  0  0  0  0  0  0  0  0
    1.0356   -3.1039    9.1498 H   0  0  0  0  0  0  0  0  0  0  0  0
    0.8960   -1.3401    9.0124 H   0  0  0  0  0  0  0  0  0  0  0  0
    3.2468   -1.2030    8.1653 H   0  0  0  0  0  0  0  0  0  0  0  0
    3.2254   -2.0741    9.7041 H   0  0  0  0  0  0  0  0  0  0  0  0
    4.6371   -3.2638    7.9507 H   0  0  0  0  0  0  0  0  0  0  0  0
    3.2905   -4.2612    8.5170 H   0  0  0  0  0  0  0  0  0  0  0  0
    3.4304   -4.3623    6.0246 H   0  0  0  0  0  0  0  0  0  0  0  0
    3.3591   -2.5989    5.9341 H   0  0  0  0  0  0  0  0  0  0  0  0
    1.1607   -4.4257    7.0540 H   0  0  0  0  0  0  0  0  0  0  0  0
    2.6838   -3.0953    3.9847 H   0  0  0  0  0  0  0  0  0  0  0  0
    1.5093   -3.0317    1.7903 H   0  0  0  0  0  0  0  0  0  0  0  0
   -0.9460   -3.4852    1.7151 H   0  0  0  0  0  0  0  0  0  0  0  0
   -1.0971   -4.0967    5.8082 H   0  0  0  0  0  0  0  0  0  0  0  0
   -2.9262   -2.0926    2.1543 H   0  0  0  0  0  0  0  0  0  0  0  0
   -5.0076   -2.1604    0.7781 H   0  0  0  0  0  0  0  0  0  0  0  0
   -5.7040   -0.1526   -0.5264 H   0  0  0  0  0  0  0  0  0  0  0  0
   -4.3297    1.9256   -0.4391 H   0  0  0  0  0  0  0  0  0  0  0  0
   -2.2503    1.9831    0.9424 H   0  0  0  0  0  0  0  0  0  0  0  0
  2  1  2  0  0  0  0
  2  9  1  0  0  0  0
  3  2  2  0  0  0  0
  4  6  1  0  0  0  0
  4  3  2  0  0  0  0
  5  4  1  0  0  0  0
  6  7  1  0  0  0  0
  7  8  2  0  0  0  0
  7  9  1  0  0  0  0
  9 10  2  0  0  0  0
 10 31  1  0  0  0  0
 10 11  1  0  0  0  0
 11 12  1  0  0  0  0
 12 13  1  0  0  0  0
 13 14  1  0  0  0  0
 13 34  1  0  0  0  0
 13 33  1  0  0  0  0
 14 36  1  0  0  0  0
 15 38  1  0  0  0  0
 15 14  1  0  0  0  0
 16 15  1  0  0  0  0
 17 16  1  0  0  0  0
 17 41  1  1  0  0  0
 17 12  1  0  0  0  0
 18 19  1  1  0  0  0
 18 17  1  0  0  0  0
 19 42  1  0  0  0  0
 20 19  2  0  0  0  0
 21 20  1  0  0  0  0
 21 22  2  0  0  0  0
 22 23  2  0  0  0  0
 23 18  1  0  0  0  0
 23 45  1  0  0  0  0
 24  6  1  0  0  0  0
 25 24  1  0  0  0  0
 25 46  1  0  0  0  0
 26 25  2  0  0  0  0
 27 28  2  0  0  0  0
 27 26  1  0  0  0  0
 28 29  1  0  0  0  0
 29 50  1  0  0  0  0
 29 24  2  0  0  0  0
 30  5  1  0  0  0  0
 32 11  1  0  0  0  0
 35 14  1  0  0  0  0
 37 15  1  0  0  0  0
 39 16  1  0  0  0  0
 40 16  1  0  0  0  0
 43 20  1  0  0  0  0
 44 21  1  0  0  0  0
 47 26  1  0  0  0  0
 48 27  1  0  0  0  0
 49 28  1  0  0  0  0
M  RAD  1  18   2
M  END
