4739623.xyz
 OpenBabel08132112133D
Sc1nnc(n1c1ccc2c(c1)OCO2)c1ccco1
 29 32  0  0  0  0  0  0  0  0999 V2000
    0.0000    0.0000    0.0000 S   0  0  0  0  0  0  0  0  0  0  0  0
   -0.0000    0.0000    1.7586 C   0  0  0  0  0  0  0  0  0  0  0  0
   -1.0701    0.0893    2.5085 N   0  0  0  0  0  0  0  0  0  0  0  0
   -0.6642    0.1545    3.8128 N   0  0  0  0  0  0  0  0  0  0  0  0
    0.6509    0.0921    3.8386 C   0  0  0  0  0  0  0  0  0  0  0  0
    1.1391    0.0000    2.5433 N   0  0  0  0  0  0  0  0  0  0  0  0
    2.4897   -0.0770    2.0997 C   0  0  0  0  0  0  0  0  0  0  0  0
    3.1250   -1.3194    2.0462 C   0  0  0  0  0  0  0  0  0  0  0  0
    4.4665   -1.4271    1.6330 C   0  0  0  0  0  0  0  0  0  0  0  0
    5.1123   -0.2546    1.2840 C   0  0  0  0  0  0  0  0  0  0  0  0
    4.4674    0.9887    1.3311 C   0  0  0  0  0  0  0  0  0  0  0  0
    3.1522    1.1143    1.7326 C   0  0  0  0  0  0  0  0  0  0  0  0
    5.3263    1.9585    0.9113 O   0  0  0  0  0  0  0  0  0  0  0  0
    6.5881    1.3240    0.7077 C   0  0  0  0  0  0  0  0  0  0  0  0
    6.3863   -0.0837    0.8360 O   0  0  0  0  0  0  0  0  0  0  0  0
    1.4822    0.1112    5.0245 C   0  0  0  0  0  0  0  0  0  0  0  0
    2.8430    0.1227    5.2446 C   0  0  0  0  0  0  0  0  0  0  0  0
    3.0163    0.1554    6.6647 C   0  0  0  0  0  0  0  0  0  0  0  0
    1.7574    0.1618    7.1987 C   0  0  0  0  0  0  0  0  0  0  0  0
    0.8281    0.1348    6.2168 O   0  0  0  0  0  0  0  0  0  0  0  0
    1.1372   -0.7237   -0.1262 H   0  0  0  0  0  0  0  0  0  0  0  0
    2.5703   -2.2087    2.3483 H   0  0  0  0  0  0  0  0  0  0  0  0
    4.9771   -2.3893    1.5879 H   0  0  0  0  0  0  0  0  0  0  0  0
    2.6433    2.0766    1.7702 H   0  0  0  0  0  0  0  0  0  0  0  0
    6.9619    1.5550   -0.3027 H   0  0  0  0  0  0  0  0  0  0  0  0
    7.3061    1.6678    1.4757 H   0  0  0  0  0  0  0  0  0  0  0  0
    3.6232    0.1130    4.4908 H   0  0  0  0  0  0  0  0  0  0  0  0
    3.9558    0.1725    7.2120 H   0  0  0  0  0  0  0  0  0  0  0  0
    1.3757    0.1830    8.2157 H   0  0  0  0  0  0  0  0  0  0  0  0
  1  2  1  0  0  0  0
  2  3  2  0  0  0  0
  2  6  1  0  0  0  0
  3  4  1  0  0  0  0
  4  5  2  0  0  0  0
  5 16  1  0  0  0  0
  6  5  1  0  0  0  0
  7  6  1  0  0  0  0
  8  7  1  0  0  0  0
  8 22  1  0  0  0  0
  9  8  2  0  0  0  0
 10 11  2  0  0  0  0
 10  9  1  0  0  0  0
 11 12  1  0  0  0  0
 12 24  1  0  0  0  0
 12  7  2  0  0  0  0
 13 11  1  0  0  0  0
 14 15  1  0  0  0  0
 14 13  1  0  0  0  0
 14 26  1  0  0  0  0
 15 10  1  0  0  0  0
 16 17  2  0  0  0  0
 16 20  1  0  0  0  0
 17 18  1  0  0  0  0
 18 19  2  0  0  0  0
 18 28  1  0  0  0  0
 19 29  1  0  0  0  0
 20 19  1  0  0  0  0
 21  1  1  0  0  0  0
 23  9  1  0  0  0  0
 25 14  1  0  0  0  0
 27 17  1  0  0  0  0
M  END
