48223363.xyz
 OpenBabel08132112133D
COC(=O)CCCCNC(=O)c1ccc2c(c1)nc(n(c2=O)C)S
 43 44  0  0  1  0  0  0  0  0999 V2000
   10.9845   -1.2806   10.7888 C   0  0  0  0  0  0  0  0  0  0  0  0
    9.7780   -1.1623   10.0371 O   0  0  0  0  0  0  0  0  0  0  0  0
    8.6479   -0.9993   10.7509 C   0  0  0  0  0  0  0  0  0  0  0  0
    8.6291   -0.9433   11.9563 O   0  0  0  0  0  0  0  0  0  0  0  0
    7.4403   -0.9077    9.8449 C   0  0  0  0  0  0  0  0  0  0  0  0
    6.1519   -0.5921   10.6006 C   0  0  0  0  0  0  0  0  0  0  0  0
    4.9022   -0.6006    9.7177 C   0  0  0  0  0  0  0  0  0  0  0  0
    4.8919    0.5029    8.6546 C   0  0  0  0  0  0  0  0  0  0  0  0
    3.6878    0.5005    7.8468 N   0  0  0  0  0  0  0  0  0  0  0  0
    3.6670    0.0030    6.5751 C   0  0  0  0  0  0  0  0  0  0  0  0
    4.6691   -0.4047    6.0075 O   0  0  0  0  0  0  0  0  0  0  0  0
    2.3220    0.0086    5.8918 C   0  0  0  0  0  0  0  0  0  0  0  0
    1.0983   -0.0067    6.5999 C   0  0  0  0  0  0  0  0  0  0  0  0
   -0.1059   -0.0115    5.9132 C   0  0  0  0  0  0  0  0  0  0  0  0
   -0.1134   -0.0014    4.5086 C   0  0  1  0  0  0  0  0  0  0  0  0
    1.1037   -0.0012    3.7874 C   0  0  0  0  0  0  0  0  0  0  0  0
    2.3181   -0.0054    4.5011 C   0  0  0  0  0  0  0  0  0  0  0  0
    1.1258    0.0000    2.4092 N   0  0  0  0  0  0  0  0  0  0  0  0
   -0.0000   -0.0000    1.7799 C   0  0  0  0  0  0  0  0  0  0  0  0
   -1.2479   -0.0000    2.3717 N   0  0  0  0  0  0  0  0  0  0  0  0
   -1.3882   -0.0010    3.7831 C   0  0  0  0  0  0  0  0  0  0  0  0
   -2.4888   -0.0010    4.3035 O   0  0  0  0  0  0  0  0  0  0  0  0
   -2.4684    0.0000    1.5695 C   0  0  0  0  0  0  0  0  0  0  0  0
    0.0000    0.0000    0.0000 S   0  0  0  0  0  0  0  0  0  0  0  0
   11.7912   -1.4078   10.0566 H   0  0  0  0  0  0  0  0  0  0  0  0
   10.9417   -2.1483   11.4647 H   0  0  0  0  0  0  0  0  0  0  0  0
   11.1580   -0.3790   11.3957 H   0  0  0  0  0  0  0  0  0  0  0  0
    7.3581   -1.8680    9.3053 H   0  0  0  0  0  0  0  0  0  0  0  0
    7.6661   -0.1621    9.0655 H   0  0  0  0  0  0  0  0  0  0  0  0
    6.2551    0.3872   11.0993 H   0  0  0  0  0  0  0  0  0  0  0  0
    6.0349   -1.3233   11.4151 H   0  0  0  0  0  0  0  0  0  0  0  0
    4.8035   -1.5753    9.2090 H   0  0  0  0  0  0  0  0  0  0  0  0
    4.0078   -0.4904   10.3555 H   0  0  0  0  0  0  0  0  0  0  0  0
    5.0061    1.4901    9.1356 H   0  0  0  0  0  0  0  0  0  0  0  0
    5.7290    0.3732    7.9553 H   0  0  0  0  0  0  0  0  0  0  0  0
    2.8366    0.8788    8.2404 H   0  0  0  0  0  0  0  0  0  0  0  0
    1.0904   -0.0505    7.6910 H   0  0  0  0  0  0  0  0  0  0  0  0
   -1.0638   -0.0318    6.4354 H   0  0  0  0  0  0  0  0  0  0  0  0
    3.2619   -0.0207    3.9564 H   0  0  0  0  0  0  0  0  0  0  0  0
   -2.5125    0.8973    0.9340 H   0  0  0  0  0  0  0  0  0  0  0  0
   -2.5124   -0.8972    0.9339 H   0  0  0  0  0  0  0  0  0  0  0  0
   -3.3129   -0.0001    2.2669 H   0  0  0  0  0  0  0  0  0  0  0  0
    1.3501   -0.0031   -0.0450 H   0  0  0  0  0  0  0  0  0  0  0  0
  1 27  1  0  0  0  0
  1 26  1  0  0  0  0
  2  3  1  0  0  0  0
  2  1  1  0  0  0  0
  3  4  2  0  0  0  0
  5  6  1  0  0  0  0
  5  3  1  0  0  0  0
  6 30  1  0  0  0  0
  6 31  1  0  0  0  0
  7 33  1  0  0  0  0
  7  6  1  0  0  0  0
  8 34  1  0  0  0  0
  8  7  1  0  0  0  0
  9 36  1  0  0  0  0
  9  8  1  0  0  0  0
 10  9  1  0  0  0  0
 11 10  2  0  0  0  0
 12 10  1  0  0  0  0
 12 13  1  0  0  0  0
 13 37  1  0  0  0  0
 14 38  1  0  0  0  0
 14 13  2  0  0  0  0
 15 21  1  6  0  0  0
 15 14  1  0  0  0  0
 16 17  1  0  0  0  0
 16 15  1  0  0  0  0
 17 12  2  0  0  0  0
 18 16  2  0  0  0  0
 19 20  1  0  0  0  0
 19 18  2  0  0  0  0
 20 21  1  0  0  0  0
 21 22  2  0  0  0  0
 23 42  1  0  0  0  0
 23 20  1  0  0  0  0
 24 19  1  0  0  0  0
 25  1  1  0  0  0  0
 28  5  1  0  0  0  0
 29  5  1  0  0  0  0
 32  7  1  0  0  0  0
 35  8  1  0  0  0  0
 39 17  1  0  0  0  0
 40 23  1  0  0  0  0
 41 23  1  0  0  0  0
 43 24  1  0  0  0  0
M  RAD  1  15   2
M  END
