48299950.xyz
 OpenBabel08132112133D
CCN(C(c1ccccc1)C(=O)Nc1cccc(c1)n1c(C)nnc1S)C
 50 52  0  0  1  0  0  0  0  0999 V2000
   -8.5786   -2.8604    6.1822 C   0  0  0  0  0  0  0  0  0  0  0  0
   -7.7168   -2.7135    4.9320 C   0  0  0  0  0  0  0  0  0  0  0  0
   -8.2983   -3.3444    3.7541 N   0  0  0  0  0  0  0  0  0  0  0  0
   -7.3277   -3.6076    2.6943 C   0  0  1  0  0  0  0  0  0  0  0  0
   -7.8790   -4.5695    1.6499 C   0  0  0  0  0  0  0  0  0  0  0  0
   -8.4214   -5.7806    2.1079 C   0  0  0  0  0  0  0  0  0  0  0  0
   -8.9077   -6.7282    1.2086 C   0  0  0  0  0  0  0  0  0  0  0  0
   -8.8588   -6.4784   -0.1675 C   0  0  0  0  0  0  0  0  0  0  0  0
   -8.3252   -5.2750   -0.6299 C   0  0  0  0  0  0  0  0  0  0  0  0
   -7.8394   -4.3224    0.2729 C   0  0  0  0  0  0  0  0  0  0  0  0
   -6.7867   -2.2962    2.0955 C   0  0  0  0  0  0  0  0  0  0  0  0
   -7.4995   -1.5184    1.4853 O   0  0  0  0  0  0  0  0  0  0  0  0
   -5.4614   -2.0540    2.3848 N   0  0  0  0  0  0  0  0  0  0  0  0
   -4.6766   -0.9394    2.0532 C   0  0  0  0  0  0  0  0  0  0  0  0
   -5.1771    0.1772    1.3590 C   0  0  0  0  0  0  0  0  0  0  0  0
   -4.3241    1.2430    1.0666 C   0  0  0  0  0  0  0  0  0  0  0  0
   -2.9841    1.2347    1.4551 C   0  0  0  0  0  0  0  0  0  0  0  0
   -2.4926    0.1217    2.1454 C   0  0  0  0  0  0  0  0  0  0  0  0
   -3.3244   -0.9607    2.4355 C   0  0  0  0  0  0  0  0  0  0  0  0
   -1.1309    0.0817    2.5564 N   0  0  0  0  0  0  0  0  0  0  0  0
   -0.6324    0.1284    3.8484 C   0  0  0  0  0  0  0  0  0  0  0  0
   -1.4795    0.2270    5.0679 C   0  0  0  0  0  0  0  0  0  0  0  0
    0.6763    0.0931    3.8154 N   0  0  0  0  0  0  0  0  0  0  0  0
    1.0758   -0.0000    2.5038 N   0  0  0  0  0  0  0  0  0  0  0  0
   -0.0000    0.0000    1.7612 C   0  0  0  0  0  0  0  0  0  0  0  0
    0.0000    0.0000    0.0000 S   0  0  0  0  0  0  0  0  0  0  0  0
   -9.5518   -2.7434    3.3189 C   0  0  0  0  0  0  0  0  0  0  0  0
   -8.0377   -2.4797    7.0623 H   0  0  0  0  0  0  0  0  0  0  0  0
   -8.8277   -3.9192    6.3545 H   0  0  0  0  0  0  0  0  0  0  0  0
   -9.5193   -2.2952    6.1054 H   0  0  0  0  0  0  0  0  0  0  0  0
   -7.5030   -1.6337    4.7599 H   0  0  0  0  0  0  0  0  0  0  0  0
   -6.7410   -3.1952    5.1165 H   0  0  0  0  0  0  0  0  0  0  0  0
   -6.4872   -4.1295    3.1879 H   0  0  0  0  0  0  0  0  0  0  0  0
   -8.4709   -5.9593    3.1841 H   0  0  0  0  0  0  0  0  0  0  0  0
   -9.3270   -7.6662    1.5808 H   0  0  0  0  0  0  0  0  0  0  0  0
   -9.2398   -7.2191   -0.8747 H   0  0  0  0  0  0  0  0  0  0  0  0
   -8.2913   -5.0668   -1.7021 H   0  0  0  0  0  0  0  0  0  0  0  0
   -7.4516   -3.3757   -0.1028 H   0  0  0  0  0  0  0  0  0  0  0  0
   -4.9816   -2.7855    2.8950 H   0  0  0  0  0  0  0  0  0  0  0  0
   -6.2216    0.1891    1.0604 H   0  0  0  0  0  0  0  0  0  0  0  0
   -4.7219    2.1048    0.5262 H   0  0  0  0  0  0  0  0  0  0  0  0
   -2.3181    2.0675    1.2283 H   0  0  0  0  0  0  0  0  0  0  0  0
   -2.9087   -1.8257    2.9574 H   0  0  0  0  0  0  0  0  0  0  0  0
   -0.8172    0.3616    5.9325 H   0  0  0  0  0  0  0  0  0  0  0  0
   -2.0842   -0.6803    5.2263 H   0  0  0  0  0  0  0  0  0  0  0  0
   -2.1736    1.0803    5.0077 H   0  0  0  0  0  0  0  0  0  0  0  0
   -1.1636   -0.6786   -0.1340 H   0  0  0  0  0  0  0  0  0  0  0  0
   -9.4670   -1.6570    3.1212 H   0  0  0  0  0  0  0  0  0  0  0  0
   -9.8904   -3.2259    2.3931 H   0  0  0  0  0  0  0  0  0  0  0  0
  -10.3258   -2.9035    4.0839 H   0  0  0  0  0  0  0  0  0  0  0  0
  1 29  1  0  0  0  0
  1 28  1  0  0  0  0
  2 32  1  0  0  0  0
  2  1  1  0  0  0  0
  3  2  1  0  0  0  0
  4 33  1  1  0  0  0
  4  3  1  0  0  0  0
  5  6  1  0  0  0  0
  5  4  1  0  0  0  0
  6 34  1  0  0  0  0
  7 35  1  0  0  0  0
  7  6  2  0  0  0  0
  8  7  1  0  0  0  0
  9  8  2  0  0  0  0
  9 10  1  0  0  0  0
 10  5  2  0  0  0  0
 11 13  1  0  0  0  0
 11  4  1  0  0  0  0
 12 11  2  0  0  0  0
 13 39  1  0  0  0  0
 14 13  1  0  0  0  0
 14 19  2  0  0  0  0
 15 14  1  0  0  0  0
 16 15  2  0  0  0  0
 16 17  1  0  0  0  0
 17 18  2  0  0  0  0
 18 19  1  0  0  0  0
 18 20  1  0  0  0  0
 19 43  1  0  0  0  0
 20 21  1  0  0  0  0
 21 22  1  0  0  0  0
 22 45  1  0  0  0  0
 22 44  1  0  0  0  0
 23 21  2  0  0  0  0
 24 23  1  0  0  0  0
 25 24  2  0  0  0  0
 25 20  1  0  0  0  0
 26 25  1  0  0  0  0
 27  3  1  0  0  0  0
 27 50  1  0  0  0  0
 30  1  1  0  0  0  0
 31  2  1  0  0  0  0
 36  8  1  0  0  0  0
 37  9  1  0  0  0  0
 38 10  1  0  0  0  0
 40 15  1  0  0  0  0
 41 16  1  0  0  0  0
 42 17  1  0  0  0  0
 46 22  1  0  0  0  0
 47 26  1  0  0  0  0
 48 27  1  0  0  0  0
 49 27  1  0  0  0  0
M  END
