48602535.xyz
 OpenBabel08132112133D
Cc1ccc2c(c1)n(C)c(n2)S
 22 23  0  0  1  0  0  0  0  0999 V2000
    1.6888   -0.0597    7.5074 C   0  0  0  0  0  0  0  0  0  0  0  0
    0.9277   -0.0413    6.2045 C   0  0  2  0  0  0  0  0  0  0  0  0
   -0.4886   -0.0319    6.2200 C   0  0  0  0  0  0  0  0  0  0  0  0
   -1.2495   -0.0182    5.0536 C   0  0  0  0  0  0  0  0  0  0  0  0
   -0.5770   -0.0131    3.8241 C   0  0  0  0  0  0  0  0  0  0  0  0
    0.8400   -0.0185    3.8116 C   0  0  0  0  0  0  0  0  0  0  0  0
    1.6058   -0.0359    4.9797 C   0  0  0  0  0  0  0  0  0  0  0  0
    1.1925    0.0000    2.4679 N   0  0  0  0  0  0  0  0  0  0  0  0
    2.5371   -0.0129    1.9408 C   0  0  0  0  0  0  0  0  0  0  0  0
    0.0000   -0.0000    1.7651 C   0  0  0  0  0  0  0  0  0  0  0  0
   -1.0638   -0.0040    2.5254 N   0  0  0  0  0  0  0  0  0  0  0  0
    0.0000    0.0000    0.0000 S   0  0  0  0  0  0  0  0  0  0  0  0
    2.7763   -0.0684    7.3420 H   0  0  0  0  0  0  0  0  0  0  0  0
    1.4330   -0.9482    8.1086 H   0  0  0  0  0  0  0  0  0  0  0  0
    1.4496    0.8233    8.1235 H   0  0  0  0  0  0  0  0  0  0  0  0
   -0.9980   -0.0374    7.1876 H   0  0  0  0  0  0  0  0  0  0  0  0
   -2.3406   -0.0125    5.0832 H   0  0  0  0  0  0  0  0  0  0  0  0
    2.6978   -0.0484    4.9490 H   0  0  0  0  0  0  0  0  0  0  0  0
    3.1655    0.6960    2.5011 H   0  0  0  0  0  0  0  0  0  0  0  0
    2.9910   -1.0160    2.0067 H   0  0  0  0  0  0  0  0  0  0  0  0
    2.5250    0.3009    0.8882 H   0  0  0  0  0  0  0  0  0  0  0  0
   -1.3449    0.1094   -0.0557 H   0  0  0  0  0  0  0  0  0  0  0  0
  1 14  1  0  0  0  0
  1 15  1  0  0  0  0
  2  3  1  0  0  0  0
  2  1  1  6  0  0  0
  3 16  1  0  0  0  0
  4 17  1  0  0  0  0
  4  3  2  0  0  0  0
  5  4  1  0  0  0  0
  6  5  1  0  0  0  0
  6  7  2  0  0  0  0
  7  2  1  0  0  0  0
  8  6  1  0  0  0  0
  9 20  1  0  0  0  0
  9  8  1  0  0  0  0
  9 19  1  0  0  0  0
 10  8  1  0  0  0  0
 10 11  2  0  0  0  0
 11  5  2  0  0  0  0
 12 10  1  0  0  0  0
 13  1  1  0  0  0  0
 18  7  1  0  0  0  0
 21  9  1  0  0  0  0
 22 12  1  0  0  0  0
M  RAD  1   2   2
M  END
