48980160.xyz
 OpenBabel08132112133D
Cc1ccc(cc1)c1nn2c(S)nnc2c2c1cccc2
 33 36  0  0  0  0  0  0  0  0999 V2000
   -8.7515   -0.2852    0.8135 C   0  0  0  0  0  0  0  0  0  0  0  0
   -7.3551   -0.2387    1.3773 C   0  0  0  0  0  0  0  0  0  0  0  0
   -6.9537   -1.1064    2.4030 C   0  0  0  0  0  0  0  0  0  0  0  0
   -5.6696   -1.0407    2.9451 C   0  0  0  0  0  0  0  0  0  0  0  0
   -4.7418   -0.1018    2.4688 C   0  0  0  0  0  0  0  0  0  0  0  0
   -5.1316    0.7567    1.4281 C   0  0  0  0  0  0  0  0  0  0  0  0
   -6.4174    0.6904    0.8978 C   0  0  0  0  0  0  0  0  0  0  0  0
   -3.3512   -0.0438    2.9902 C   0  0  0  0  0  0  0  0  0  0  0  0
   -2.4192   -0.0358    2.0758 N   0  0  0  0  0  0  0  0  0  0  0  0
   -1.1474    0.0023    2.5122 N   0  0  0  0  0  0  0  0  0  0  0  0
   -0.0000    0.0000    1.7514 C   0  0  0  0  0  0  0  0  0  0  0  0
    0.0000    0.0000    0.0000 S   0  0  0  0  0  0  0  0  0  0  0  0
    1.0487    0.0000    2.5454 N   0  0  0  0  0  0  0  0  0  0  0  0
    0.6123   -0.0016    3.8470 N   0  0  0  0  0  0  0  0  0  0  0  0
   -0.7015   -0.0036    3.8271 C   0  0  0  0  0  0  0  0  0  0  0  0
   -1.7019    0.0175    4.8558 C   0  0  0  0  0  0  0  0  0  0  0  0
   -3.0603    0.0193    4.4284 C   0  0  0  0  0  0  0  0  0  0  0  0
   -4.0677    0.1273    5.4118 C   0  0  0  0  0  0  0  0  0  0  0  0
   -3.7373    0.1856    6.7593 C   0  0  0  0  0  0  0  0  0  0  0  0
   -2.3916    0.1454    7.1665 C   0  0  0  0  0  0  0  0  0  0  0  0
   -1.3775    0.0705    6.2224 C   0  0  0  0  0  0  0  0  0  0  0  0
   -9.2641   -1.2216    1.0779 H   0  0  0  0  0  0  0  0  0  0  0  0
   -8.7445   -0.1946   -0.2839 H   0  0  0  0  0  0  0  0  0  0  0  0
   -9.3610    0.5487    1.2026 H   0  0  0  0  0  0  0  0  0  0  0  0
   -7.6562   -1.8546    2.7794 H   0  0  0  0  0  0  0  0  0  0  0  0
   -5.3780   -1.7464    3.7253 H   0  0  0  0  0  0  0  0  0  0  0  0
   -4.4115    1.4794    1.0402 H   0  0  0  0  0  0  0  0  0  0  0  0
   -6.7018    1.3734    0.0926 H   0  0  0  0  0  0  0  0  0  0  0  0
   -1.3524   -0.0740   -0.0628 H   0  0  0  0  0  0  0  0  0  0  0  0
   -5.1125    0.1797    5.1087 H   0  0  0  0  0  0  0  0  0  0  0  0
   -4.5294    0.2706    7.5063 H   0  0  0  0  0  0  0  0  0  0  0  0
   -2.1435    0.1887    8.2294 H   0  0  0  0  0  0  0  0  0  0  0  0
   -0.3248    0.0628    6.5089 H   0  0  0  0  0  0  0  0  0  0  0  0
  1 22  1  0  0  0  0
  1 24  1  0  0  0  0
  1  2  1  0  0  0  0
  2  3  1  0  0  0  0
  3 25  1  0  0  0  0
  3  4  2  0  0  0  0
  4 26  1  0  0  0  0
  5  4  1  0  0  0  0
  5  8  1  0  0  0  0
  6  5  2  0  0  0  0
  7  2  2  0  0  0  0
  7  6  1  0  0  0  0
  8 17  1  0  0  0  0
  9 10  1  0  0  0  0
  9  8  2  0  0  0  0
 10 15  1  0  0  0  0
 11 10  1  0  0  0  0
 11 13  2  0  0  0  0
 12 11  1  0  0  0  0
 13 14  1  0  0  0  0
 15 14  2  0  0  0  0
 15 16  1  0  0  0  0
 16 21  1  0  0  0  0
 17 16  2  0  0  0  0
 17 18  1  0  0  0  0
 18 19  2  0  0  0  0
 19 20  1  0  0  0  0
 19 31  1  0  0  0  0
 20 32  1  0  0  0  0
 21 33  1  0  0  0  0
 21 20  2  0  0  0  0
 23  1  1  0  0  0  0
 27  6  1  0  0  0  0
 28  7  1  0  0  0  0
 29 12  1  0  0  0  0
 30 18  1  0  0  0  0
M  END
