49365773.xyz
 OpenBabel08132112133D
Sc1nnc(n1c1ccccc1)C(C)(C)C
 31 32  0  0  0  0  0  0  0  0999 V2000
    0.0000    0.0000    0.0000 S   0  0  0  0  0  0  0  0  0  0  0  0
    0.0000   -0.0000    1.7606 C   0  0  0  0  0  0  0  0  0  0  0  0
   -1.0368    0.0001    2.5561 N   0  0  0  0  0  0  0  0  0  0  0  0
   -0.5560   -0.0001    3.8432 N   0  0  0  0  0  0  0  0  0  0  0  0
    0.7539   -0.0001    3.8151 C   0  0  0  0  0  0  0  0  0  0  0  0
    1.1737   -0.0000    2.4847 N   0  0  0  0  0  0  0  0  0  0  0  0
    2.4774   -0.0013    1.9007 C   0  0  0  0  0  0  0  0  0  0  0  0
    3.1019    1.2119    1.5928 C   0  0  0  0  0  0  0  0  0  0  0  0
    4.3621    1.2073    0.9923 C   0  0  0  0  0  0  0  0  0  0  0  0
    4.9913   -0.0045    0.6922 C   0  0  0  0  0  0  0  0  0  0  0  0
    4.3555   -1.2147    0.9849 C   0  0  0  0  0  0  0  0  0  0  0  0
    3.0954   -1.2161    1.5855 C   0  0  0  0  0  0  0  0  0  0  0  0
    1.6425    0.0004    5.0417 C   0  0  0  0  0  0  0  0  0  0  0  0
    2.5366   -1.2570    5.0642 C   0  0  0  0  0  0  0  0  0  0  0  0
    2.5247    1.2661    5.0702 C   0  0  0  0  0  0  0  0  0  0  0  0
    0.7351   -0.0067    6.2840 C   0  0  0  0  0  0  0  0  0  0  0  0
   -1.3516   -0.0010   -0.0468 H   0  0  0  0  0  0  0  0  0  0  0  0
    2.5922    2.1479    1.8269 H   0  0  0  0  0  0  0  0  0  0  0  0
    4.8523    2.1540    0.7550 H   0  0  0  0  0  0  0  0  0  0  0  0
    5.9774   -0.0058    0.2223 H   0  0  0  0  0  0  0  0  0  0  0  0
    4.8406   -2.1625    0.7418 H   0  0  0  0  0  0  0  0  0  0  0  0
    2.5807   -2.1505    1.8144 H   0  0  0  0  0  0  0  0  0  0  0  0
    3.2565   -1.2662    4.2340 H   0  0  0  0  0  0  0  0  0  0  0  0
    1.9280   -2.1727    5.0075 H   0  0  0  0  0  0  0  0  0  0  0  0
    3.1108   -1.2870    6.0036 H   0  0  0  0  0  0  0  0  0  0  0  0
    1.9073    2.1762    5.0191 H   0  0  0  0  0  0  0  0  0  0  0  0
    3.0999    1.2965    6.0090 H   0  0  0  0  0  0  0  0  0  0  0  0
    3.2434    1.2865    4.2392 H   0  0  0  0  0  0  0  0  0  0  0  0
    0.0794    0.8744    6.3013 H   0  0  0  0  0  0  0  0  0  0  0  0
    1.3586   -0.0060    7.1916 H   0  0  0  0  0  0  0  0  0  0  0  0
    0.0877   -0.8942    6.2973 H   0  0  0  0  0  0  0  0  0  0  0  0
  1  2  1  0  0  0  0
  2  6  1  0  0  0  0
  2  3  2  0  0  0  0
  3  4  1  0  0  0  0
  5  4  2  0  0  0  0
  5 13  1  0  0  0  0
  6  5  1  0  0  0  0
  7  6  1  0  0  0  0
  8 18  1  0  0  0  0
  8  7  1  0  0  0  0
  9  8  2  0  0  0  0
 10 11  2  0  0  0  0
 10  9  1  0  0  0  0
 11 12  1  0  0  0  0
 12 22  1  0  0  0  0
 12  7  2  0  0  0  0
 13 14  1  0  0  0  0
 13 15  1  0  0  0  0
 13 16  1  0  0  0  0
 14 25  1  0  0  0  0
 15 27  1  0  0  0  0
 16 31  1  0  0  0  0
 16 29  1  0  0  0  0
 16 30  1  0  0  0  0
 17  1  1  0  0  0  0
 19  9  1  0  0  0  0
 20 10  1  0  0  0  0
 21 11  1  0  0  0  0
 23 14  1  0  0  0  0
 24 14  1  0  0  0  0
 26 15  1  0  0  0  0
 28 15  1  0  0  0  0
M  END
