49397763.xyz
 OpenBabel08132112133D
Sc1nnc(n1c1ccccc1)Cc1ccc2c(c1)OCCCO2
 41 44  0  0  0  0  0  0  0  0999 V2000
    0.0000    0.0000    0.0000 S   0  0  0  0  0  0  0  0  0  0  0  0
   -0.0000    0.0000    1.7595 C   0  0  0  0  0  0  0  0  0  0  0  0
   -1.0397   -0.0095    2.5556 N   0  0  0  0  0  0  0  0  0  0  0  0
   -0.5650    0.0009    3.8485 N   0  0  0  0  0  0  0  0  0  0  0  0
    0.7429    0.0019    3.8094 C   0  0  0  0  0  0  0  0  0  0  0  0
    1.1678   -0.0000    2.4878 N   0  0  0  0  0  0  0  0  0  0  0  0
    2.5067    0.0734    2.0037 C   0  0  0  0  0  0  0  0  0  0  0  0
    3.3453   -1.0392    2.1121 C   0  0  0  0  0  0  0  0  0  0  0  0
    4.6776   -0.9393    1.7073 C   0  0  0  0  0  0  0  0  0  0  0  0
    5.1618    0.2626    1.1844 C   0  0  0  0  0  0  0  0  0  0  0  0
    4.3113    1.3657    1.0601 C   0  0  0  0  0  0  0  0  0  0  0  0
    2.9818    1.2759    1.4713 C   0  0  0  0  0  0  0  0  0  0  0  0
    1.6740    0.0740    4.9778 C   0  0  0  0  0  0  0  0  0  0  0  0
    2.6509    1.2280    4.8536 C   0  0  0  0  0  0  0  0  0  0  0  0
    2.1825    2.5378    4.6764 C   0  0  0  0  0  0  0  0  0  0  0  0
    3.0812    3.5827    4.4784 C   0  0  0  0  0  0  0  0  0  0  0  0
    4.4613    3.3523    4.4316 C   0  0  0  0  0  0  0  0  0  0  0  0
    4.9385    2.0317    4.5804 C   0  0  0  0  0  0  0  0  0  0  0  0
    4.0259    0.9970    4.8072 C   0  0  0  0  0  0  0  0  0  0  0  0
    6.2611    1.6882    4.5088 O   0  0  0  0  0  0  0  0  0  0  0  0
    7.0646    2.4056    3.5772 C   0  0  0  0  0  0  0  0  0  0  0  0
    7.6075    3.7026    4.1710 C   0  0  0  0  0  0  0  0  0  0  0  0
    6.5127    4.4468    4.9335 C   0  0  0  0  0  0  0  0  0  0  0  0
    5.2750    4.4343    4.2278 O   0  0  0  0  0  0  0  0  0  0  0  0
   -1.3513   -0.0184   -0.0487 H   0  0  0  0  0  0  0  0  0  0  0  0
    2.9493   -1.9695    2.5234 H   0  0  0  0  0  0  0  0  0  0  0  0
    5.3391   -1.8032    1.8005 H   0  0  0  0  0  0  0  0  0  0  0  0
    6.2059    0.3402    0.8733 H   0  0  0  0  0  0  0  0  0  0  0  0
    4.6865    2.3069    0.6526 H   0  0  0  0  0  0  0  0  0  0  0  0
    2.3144    2.1361    1.4118 H   0  0  0  0  0  0  0  0  0  0  0  0
    1.0359    0.1762    5.8682 H   0  0  0  0  0  0  0  0  0  0  0  0
    2.2317   -0.8702    5.0848 H   0  0  0  0  0  0  0  0  0  0  0  0
    1.1080    2.7362    4.6897 H   0  0  0  0  0  0  0  0  0  0  0  0
    2.7395    4.6129    4.3613 H   0  0  0  0  0  0  0  0  0  0  0  0
    4.4306   -0.0128    4.8920 H   0  0  0  0  0  0  0  0  0  0  0  0
    6.4713    2.6153    2.6724 H   0  0  0  0  0  0  0  0  0  0  0  0
    7.8841    1.7285    3.2932 H   0  0  0  0  0  0  0  0  0  0  0  0
    8.4424    3.4974    4.8613 H   0  0  0  0  0  0  0  0  0  0  0  0
    8.0049    4.3242    3.3513 H   0  0  0  0  0  0  0  0  0  0  0  0
    6.3680    4.0019    5.9326 H   0  0  0  0  0  0  0  0  0  0  0  0
    6.7789    5.5053    5.0717 H   0  0  0  0  0  0  0  0  0  0  0  0
  1  2  1  0  0  0  0
  2  6  1  0  0  0  0
  2  3  2  0  0  0  0
  3  4  1  0  0  0  0
  5  4  2  0  0  0  0
  5 13  1  0  0  0  0
  6  5  1  0  0  0  0
  7  8  1  0  0  0  0
  7  6  1  0  0  0  0
  8 26  1  0  0  0  0
  9 27  1  0  0  0  0
  9  8  2  0  0  0  0
 10  9  1  0  0  0  0
 11 10  2  0  0  0  0
 11 12  1  0  0  0  0
 12  7  2  0  0  0  0
 13 32  1  0  0  0  0
 13 31  1  0  0  0  0
 14 13  1  0  0  0  0
 15 33  1  0  0  0  0
 15 14  2  0  0  0  0
 16 15  1  0  0  0  0
 17 16  2  0  0  0  0
 17 18  1  0  0  0  0
 18 19  2  0  0  0  0
 19 14  1  0  0  0  0
 19 35  1  0  0  0  0
 20 18  1  0  0  0  0
 21 22  1  0  0  0  0
 21 20  1  0  0  0  0
 22 38  1  0  0  0  0
 22 23  1  0  0  0  0
 23 41  1  0  0  0  0
 23 40  1  0  0  0  0
 24 17  1  0  0  0  0
 24 23  1  0  0  0  0
 25  1  1  0  0  0  0
 28 10  1  0  0  0  0
 29 11  1  0  0  0  0
 30 12  1  0  0  0  0
 34 16  1  0  0  0  0
 36 21  1  0  0  0  0
 37 21  1  0  0  0  0
 39 22  1  0  0  0  0
M  END
