50318493.xyz
 OpenBabel08132112133D
O=C(c1ccccn1)NCCc1nnc(n1C1CC1)S
 35 37  0  0  0  0  0  0  0  0999 V2000
    4.9244   -0.6492    4.8969 O   0  0  0  0  0  0  0  0  0  0  0  0
    4.5525   -1.0531    5.9849 C   0  0  0  0  0  0  0  0  0  0  0  0
    5.4643   -1.0808    7.1929 C   0  0  0  0  0  0  0  0  0  0  0  0
    5.0005   -0.7100    8.4641 C   0  0  0  0  0  0  0  0  0  0  0  0
    5.9004   -0.7106    9.5316 C   0  0  0  0  0  0  0  0  0  0  0  0
    7.2205   -1.0891    9.2912 C   0  0  0  0  0  0  0  0  0  0  0  0
    7.5822   -1.4408    7.9846 C   0  0  0  0  0  0  0  0  0  0  0  0
    6.7332   -1.4309    6.9595 N   0  0  0  0  0  0  0  0  0  0  0  0
    3.2793   -1.4968    6.2120 N   0  0  0  0  0  0  0  0  0  0  0  0
    2.2879   -1.4794    5.1540 C   0  0  0  0  0  0  0  0  0  0  0  0
    1.6031   -0.1071    5.0075 C   0  0  0  0  0  0  0  0  0  0  0  0
    0.7113   -0.0295    3.8158 C   0  0  0  0  0  0  0  0  0  0  0  0
   -0.5985   -0.0335    3.8382 N   0  0  0  0  0  0  0  0  0  0  0  0
   -1.0535   -0.0112    2.5396 N   0  0  0  0  0  0  0  0  0  0  0  0
    0.0000   -0.0000    1.7604 C   0  0  0  0  0  0  0  0  0  0  0  0
    1.1577   -0.0000    2.5027 N   0  0  0  0  0  0  0  0  0  0  0  0
    2.5101   -0.0595    2.0238 C   0  0  0  0  0  0  0  0  0  0  0  0
    3.0044    0.9799    1.0484 C   0  0  0  0  0  0  0  0  0  0  0  0
    3.4992    0.9831    2.4666 C   0  0  0  0  0  0  0  0  0  0  0  0
    0.0000    0.0000    0.0000 S   0  0  0  0  0  0  0  0  0  0  0  0
    3.9638   -0.3991    8.6085 H   0  0  0  0  0  0  0  0  0  0  0  0
    5.5754   -0.4143   10.5319 H   0  0  0  0  0  0  0  0  0  0  0  0
    7.9612   -1.1074   10.0934 H   0  0  0  0  0  0  0  0  0  0  0  0
    8.6125   -1.7418    7.7616 H   0  0  0  0  0  0  0  0  0  0  0  0
    3.0459   -1.9014    7.1093 H   0  0  0  0  0  0  0  0  0  0  0  0
    1.5353   -2.2563    5.3523 H   0  0  0  0  0  0  0  0  0  0  0  0
    2.8010   -1.7358    4.2161 H   0  0  0  0  0  0  0  0  0  0  0  0
    2.3881    0.6611    4.9551 H   0  0  0  0  0  0  0  0  0  0  0  0
    0.9808    0.1004    5.8895 H   0  0  0  0  0  0  0  0  0  0  0  0
    2.8869   -1.0797    1.8954 H   0  0  0  0  0  0  0  0  0  0  0  0
    2.3028    1.7634    0.7527 H   0  0  0  0  0  0  0  0  0  0  0  0
    3.6641    0.6351    0.2487 H   0  0  0  0  0  0  0  0  0  0  0  0
    4.5029    0.6355    2.7157 H   0  0  0  0  0  0  0  0  0  0  0  0
    3.1224    1.7770    3.1154 H   0  0  0  0  0  0  0  0  0  0  0  0
   -1.3513   -0.0336   -0.0460 H   0  0  0  0  0  0  0  0  0  0  0  0
  1  2  2  0  0  0  0
  2  9  1  0  0  0  0
  2  3  1  0  0  0  0
  3  4  1  0  0  0  0
  4 21  1  0  0  0  0
  4  5  1  0  0  0  0
  5 22  1  0  0  0  0
  6  5  2  0  0  0  0
  6 23  1  0  0  0  0
  7  6  1  0  0  0  0
  8  3  2  0  0  0  0
  8  7  2  0  0  0  0
  9 25  1  0  0  0  0
 10 26  1  0  0  0  0
 10  9  1  0  0  0  0
 11 10  1  0  0  0  0
 11 29  1  0  0  0  0
 12 13  2  0  0  0  0
 12 11  1  0  0  0  0
 14 13  1  0  0  0  0
 15 16  1  0  0  0  0
 15 14  2  0  0  0  0
 16 12  1  0  0  0  0
 17 19  1  0  0  0  0
 17 16  1  0  0  0  0
 18 17  1  0  0  0  0
 18 19  1  0  0  0  0
 19 33  1  0  0  0  0
 19 34  1  0  0  0  0
 20 15  1  0  0  0  0
 24  7  1  0  0  0  0
 27 10  1  0  0  0  0
 28 11  1  0  0  0  0
 30 17  1  0  0  0  0
 31 18  1  0  0  0  0
 32 18  1  0  0  0  0
 35 20  1  0  0  0  0
M  RAD  1   4   2
M  END
