50323645.xyz
 OpenBabel08132112133D
O=C(N1CCC(CC1)NC(=O)c1ccc2c(c1)oc(n2)S)C(C)C
 45 47  0  0  1  0  0  0  0  0999 V2000
    5.3628   -0.9279    4.6419 O   0  0  0  0  0  0  0  0  0  0  0  0
    5.0872   -1.8535    5.4012 C   0  0  0  0  0  0  0  0  0  0  0  0
    5.5795   -1.8810    6.6840 N   0  0  0  0  0  0  0  0  0  0  0  0
    6.5281   -0.8440    7.0800 C   0  0  0  0  0  0  0  0  0  0  0  0
    5.8239    0.3758    7.7185 C   0  0  0  0  0  0  0  0  0  0  0  0
    4.4259   -0.0089    8.2262 C   0  0  0  0  0  0  0  0  0  0  0  0
    4.4795   -1.4133    8.8531 C   0  0  0  0  0  0  0  0  0  0  0  0
    4.8727   -2.4891    7.8123 C   0  0  0  0  0  0  0  0  0  0  0  0
    3.4864    0.0608    7.1116 N   0  0  0  0  0  0  0  0  0  0  0  0
    2.1429   -0.0807    7.2735 C   0  0  0  0  0  0  0  0  0  0  0  0
    1.6369   -0.2501    8.3773 O   0  0  0  0  0  0  0  0  0  0  0  0
    1.3110   -0.0338    6.0193 C   0  0  2  0  0  0  0  0  0  0  0  0
   -0.0912   -0.0381    6.1919 C   0  0  0  0  0  0  0  0  0  0  0  0
   -0.9748   -0.0189    5.1146 C   0  0  0  0  0  0  0  0  0  0  0  0
   -0.4228   -0.0019    3.8285 C   0  0  0  0  0  0  0  0  0  0  0  0
    0.9755    0.0015    3.6778 C   0  0  0  0  0  0  0  0  0  0  0  0
    1.8746   -0.0157    4.7293 C   0  0  0  0  0  0  0  0  0  0  0  0
    1.2382    0.0000    2.3277 O   0  0  0  0  0  0  0  0  0  0  0  0
    0.0000   -0.0000    1.7486 C   0  0  0  0  0  0  0  0  0  0  0  0
   -1.0064    0.0002    2.5628 N   0  0  0  0  0  0  0  0  0  0  0  0
    0.0000    0.0000    0.0000 S   0  0  0  0  0  0  0  0  0  0  0  0
    4.2298   -3.0379    4.9353 C   0  0  0  0  0  0  0  0  0  0  0  0
    3.8323   -2.8714    3.4679 C   0  0  0  0  0  0  0  0  0  0  0  0
    4.9610   -4.3734    5.1511 C   0  0  0  0  0  0  0  0  0  0  0  0
    7.1040   -0.5503    6.1956 H   0  0  0  0  0  0  0  0  0  0  0  0
    7.2199   -1.3038    7.8047 H   0  0  0  0  0  0  0  0  0  0  0  0
    6.4247    0.7502    8.5609 H   0  0  0  0  0  0  0  0  0  0  0  0
    5.7385    1.2031    6.9971 H   0  0  0  0  0  0  0  0  0  0  0  0
    4.0888    0.6992    8.9999 H   0  0  0  0  0  0  0  0  0  0  0  0
    3.5042   -1.6529    9.2963 H   0  0  0  0  0  0  0  0  0  0  0  0
    5.2138   -1.3821    9.6746 H   0  0  0  0  0  0  0  0  0  0  0  0
    5.4999   -3.2658    8.2844 H   0  0  0  0  0  0  0  0  0  0  0  0
    3.9723   -2.9866    7.4384 H   0  0  0  0  0  0  0  0  0  0  0  0
    3.8663    0.2567    6.1940 H   0  0  0  0  0  0  0  0  0  0  0  0
   -0.4592   -0.0632    7.2184 H   0  0  0  0  0  0  0  0  0  0  0  0
   -2.0561   -0.0233    5.2584 H   0  0  0  0  0  0  0  0  0  0  0  0
    2.9473   -0.0363    4.5335 H   0  0  0  0  0  0  0  0  0  0  0  0
   -1.3502    0.0023   -0.0612 H   0  0  0  0  0  0  0  0  0  0  0  0
    3.3071   -3.0364    5.5437 H   0  0  0  0  0  0  0  0  0  0  0  0
    4.7257   -2.8345    2.8271 H   0  0  0  0  0  0  0  0  0  0  0  0
    3.2083   -3.7207    3.1500 H   0  0  0  0  0  0  0  0  0  0  0  0
    3.2674   -1.9481    3.2920 H   0  0  0  0  0  0  0  0  0  0  0  0
    5.2165   -4.5567    6.2036 H   0  0  0  0  0  0  0  0  0  0  0  0
    5.8976   -4.3923    4.5711 H   0  0  0  0  0  0  0  0  0  0  0  0
    4.3354   -5.2104    4.8050 H   0  0  0  0  0  0  0  0  0  0  0  0
  1  2  2  0  0  0  0
  2  3  1  0  0  0  0
  3  4  1  0  0  0  0
  3  8  1  0  0  0  0
  4  5  1  0  0  0  0
  4 26  1  0  0  0  0
  5  6  1  0  0  0  0
  5 27  1  0  0  0  0
  6  7  1  0  0  0  0
  6 29  1  0  0  0  0
  7 30  1  0  0  0  0
  7 31  1  0  0  0  0
  8 32  1  0  0  0  0
  8  7  1  0  0  0  0
  9 10  1  0  0  0  0
  9  6  1  0  0  0  0
 10 11  2  0  0  0  0
 12 13  1  0  0  0  0
 12 10  1  6  0  0  0
 13 35  1  0  0  0  0
 14 36  1  0  0  0  0
 14 13  2  0  0  0  0
 15 14  1  0  0  0  0
 16 15  1  0  0  0  0
 16 17  2  0  0  0  0
 17 12  1  0  0  0  0
 18 16  1  0  0  0  0
 19 18  1  0  0  0  0
 19 20  2  0  0  0  0
 20 15  2  0  0  0  0
 21 19  1  0  0  0  0
 22 24  1  0  0  0  0
 22  2  1  0  0  0  0
 22 39  1  0  0  0  0
 23 22  1  0  0  0  0
 24 43  1  0  0  0  0
 25  4  1  0  0  0  0
 28  5  1  0  0  0  0
 33  8  1  0  0  0  0
 34  9  1  0  0  0  0
 37 17  1  0  0  0  0
 38 21  1  0  0  0  0
 40 23  1  0  0  0  0
 41 23  1  0  0  0  0
 42 23  1  0  0  0  0
 44 24  1  0  0  0  0
 45 24  1  0  0  0  0
M  RAD  1  12   2
M  END
