50335155.xyz
 OpenBabel08132112133D
CCc1nnc(n1CCNC(=O)C1C2C1C1CC2CC1)S
 43 46  0  0  1  0  0  0  0  0999 V2000
    0.9452   -0.3083    6.2983 C   0  0  0  0  0  0  0  0  0  0  0  0
    1.6656   -0.0191    4.9829 C   0  0  0  0  0  0  0  0  0  0  0  0
    0.7355   -0.0211    3.8110 C   0  0  0  0  0  0  0  0  0  0  0  0
   -0.5742   -0.0147    3.8463 N   0  0  0  0  0  0  0  0  0  0  0  0
   -1.0451   -0.0015    2.5506 N   0  0  0  0  0  0  0  0  0  0  0  0
   -0.0000    0.0000    1.7635 C   0  0  0  0  0  0  0  0  0  0  0  0
    1.1628   -0.0000    2.4939 N   0  0  0  0  0  0  0  0  0  0  0  0
    2.5212   -0.1233    2.0067 C   0  0  0  0  0  0  0  0  0  0  0  0
    2.9005   -1.5937    1.7606 C   0  0  0  0  0  0  0  0  0  0  0  0
    4.3224   -1.7653    1.5579 N   0  0  0  0  0  0  0  0  0  0  0  0
    5.1868   -1.6955    2.6148 C   0  0  0  0  0  0  0  0  0  0  0  0
    4.7898   -1.4783    3.7542 O   0  0  0  0  0  0  0  0  0  0  0  0
    6.6303   -1.8991    2.2839 C   0  0  1  0  0  0  0  0  0  0  0  0
    7.6192   -1.0989    3.1137 C   0  0  1  0  0  0  0  0  0  0  0  0
    7.4660   -2.5754    3.3558 C   0  0  2  0  0  0  0  0  0  0  0  0
    8.8550   -3.1587    3.0184 C   0  0  2  0  0  0  0  0  0  0  0  0
    9.7618   -2.0167    3.5441 C   0  0  0  0  0  0  0  0  0  0  0  0
    9.0851   -0.9420    2.6554 C   0  0  1  0  0  0  0  0  0  0  0  0
    9.3105   -1.5490    1.2517 C   0  0  0  0  0  0  0  0  0  0  0  0
    9.1513   -3.0840    1.5033 C   0  0  0  0  0  0  0  0  0  0  0  0
    0.0000    0.0000    0.0000 S   0  0  0  0  0  0  0  0  0  0  0  0
    0.4792   -1.3047    6.2790 H   0  0  0  0  0  0  0  0  0  0  0  0
    1.6526   -0.2691    7.1399 H   0  0  0  0  0  0  0  0  0  0  0  0
    0.1415    0.4208    6.4743 H   0  0  0  0  0  0  0  0  0  0  0  0
    2.4808   -0.7427    4.8126 H   0  0  0  0  0  0  0  0  0  0  0  0
    2.1627    0.9680    5.0359 H   0  0  0  0  0  0  0  0  0  0  0  0
    3.1983    0.2954    2.7615 H   0  0  0  0  0  0  0  0  0  0  0  0
    2.6314    0.4722    1.0870 H   0  0  0  0  0  0  0  0  0  0  0  0
    2.3580   -1.9875    0.8891 H   0  0  0  0  0  0  0  0  0  0  0  0
    2.5942   -2.1771    2.6422 H   0  0  0  0  0  0  0  0  0  0  0  0
    4.6838   -1.9289    0.6275 H   0  0  0  0  0  0  0  0  0  0  0  0
    6.8469   -2.0945    1.2327 H   0  0  0  0  0  0  0  0  0  0  0  0
    7.1921   -0.3724    3.8088 H   0  0  0  0  0  0  0  0  0  0  0  0
    6.9245   -2.9446    4.2297 H   0  0  0  0  0  0  0  0  0  0  0  0
    9.0198   -4.1535    3.4542 H   0  0  0  0  0  0  0  0  0  0  0  0
   10.8336   -2.1631    3.3292 H   0  0  0  0  0  0  0  0  0  0  0  0
    9.6309   -1.8268    4.6202 H   0  0  0  0  0  0  0  0  0  0  0  0
    9.4598    0.0853    2.7598 H   0  0  0  0  0  0  0  0  0  0  0  0
   10.3245   -1.3082    0.8991 H   0  0  0  0  0  0  0  0  0  0  0  0
    8.6089   -1.1542    0.5020 H   0  0  0  0  0  0  0  0  0  0  0  0
   10.0846   -3.6213    1.2783 H   0  0  0  0  0  0  0  0  0  0  0  0
    8.3609   -3.5469    0.8940 H   0  0  0  0  0  0  0  0  0  0  0  0
   -1.3504   -0.0104   -0.0581 H   0  0  0  0  0  0  0  0  0  0  0  0
  1 24  1  0  0  0  0
  1 23  1  0  0  0  0
  2 26  1  0  0  0  0
  2  1  1  0  0  0  0
  3  4  2  0  0  0  0
  3  2  1  0  0  0  0
  5  4  1  0  0  0  0
  6  7  1  0  0  0  0
  6  5  2  0  0  0  0
  7  3  1  0  0  0  0
  8  7  1  0  0  0  0
  8 27  1  0  0  0  0
  9  8  1  0  0  0  0
  9 30  1  0  0  0  0
 10  9  1  0  0  0  0
 10 11  1  0  0  0  0
 11 12  2  0  0  0  0
 13 32  1  6  0  0  0
 13 11  1  0  0  0  0
 14 13  1  6  0  0  0
 14 15  1  0  0  0  0
 14 33  1  0  0  0  0
 15 13  1  6  0  0  0
 15 34  1  0  0  0  0
 16 15  1  1  0  0  0
 16 35  1  0  0  0  0
 16 17  1  0  0  0  0
 17 37  1  0  0  0  0
 18 38  1  0  0  0  0
 18 14  1  1  0  0  0
 18 17  1  0  0  0  0
 19 20  1  0  0  0  0
 19 18  1  0  0  0  0
 20 16  1  0  0  0  0
 21  6  1  0  0  0  0
 22  1  1  0  0  0  0
 25  2  1  0  0  0  0
 28  8  1  0  0  0  0
 29  9  1  0  0  0  0
 31 10  1  0  0  0  0
 36 17  1  0  0  0  0
 39 19  1  0  0  0  0
 40 19  1  0  0  0  0
 41 20  1  0  0  0  0
 42 20  1  0  0  0  0
 43 21  1  0  0  0  0
M  END
