53745500.xyz
 OpenBabel08132112133D
Cc1ccc(cc1)c1nnc(n1CCC(=O)N1CCN(CC1)Cc1onc(n1)c1cccs1)S
 59 63  0  0  0  0  0  0  0  0999 V2000
   -3.9255    0.6333    8.6124 C   0  0  0  0  0  0  0  0  0  0  0  0
   -3.0766    0.4353    7.3833 C   0  0  0  0  0  0  0  0  0  0  0  0
   -3.4428   -0.4739    6.3817 C   0  0  0  0  0  0  0  0  0  0  0  0
   -2.6828   -0.6166    5.2203 C   0  0  0  0  0  0  0  0  0  0  0  0
   -1.5279    0.1554    5.0249 C   0  0  0  0  0  0  0  0  0  0  0  0
   -1.1402    1.0494    6.0390 C   0  0  0  0  0  0  0  0  0  0  0  0
   -1.9032    1.1839    7.1946 C   0  0  0  0  0  0  0  0  0  0  0  0
   -0.6864    0.0437    3.8251 C   0  0  0  0  0  0  0  0  0  0  0  0
    0.6289    0.0287    3.8306 N   0  0  0  0  0  0  0  0  0  0  0  0
    1.0651   -0.0000    2.5303 N   0  0  0  0  0  0  0  0  0  0  0  0
    0.0000    0.0000    1.7605 C   0  0  0  0  0  0  0  0  0  0  0  0
   -1.1472    0.0112    2.5166 N   0  0  0  0  0  0  0  0  0  0  0  0
   -2.5043    0.2632    2.0411 C   0  0  0  0  0  0  0  0  0  0  0  0
   -2.8775    1.7455    2.1343 C   0  0  0  0  0  0  0  0  0  0  0  0
   -2.1563    2.5521    1.0620 C   0  0  0  0  0  0  0  0  0  0  0  0
   -2.5601    2.4937   -0.0912 O   0  0  0  0  0  0  0  0  0  0  0  0
   -1.0479    3.2752    1.4167 N   0  0  0  0  0  0  0  0  0  0  0  0
   -0.3186    3.9888    0.3777 C   0  0  0  0  0  0  0  0  0  0  0  0
   -0.3084    5.4925    0.6939 C   0  0  0  0  0  0  0  0  0  0  0  0
   -0.1484    5.7409    2.1313 N   0  0  0  0  0  0  0  0  0  0  0  0
    0.4093    4.6156    2.8575 C   0  0  0  0  0  0  0  0  0  0  0  0
   -0.4209    3.3152    2.7397 C   0  0  0  0  0  0  0  0  0  0  0  0
   -1.1872    6.5069    2.7852 C   0  0  0  0  0  0  0  0  0  0  0  0
   -2.5298    5.8287    2.8727 C   0  0  0  0  0  0  0  0  0  0  0  0
   -3.4067    5.9993    1.8715 O   0  0  0  0  0  0  0  0  0  0  0  0
   -4.5134    5.1987    2.1402 N   0  0  0  0  0  0  0  0  0  0  0  0
   -4.2023    4.6261    3.2837 C   0  0  0  0  0  0  0  0  0  0  0  0
   -2.9674    4.9999    3.7750 N   0  0  0  0  0  0  0  0  0  0  0  0
   -5.0480    3.6568    3.9538 C   0  0  0  0  0  0  0  0  0  0  0  0
   -6.2915    3.1930    3.5773 C   0  0  0  0  0  0  0  0  0  0  0  0
   -6.7794    2.1794    4.4491 C   0  0  0  0  0  0  0  0  0  0  0  0
   -5.8965    1.8872    5.4627 C   0  0  0  0  0  0  0  0  0  0  0  0
   -4.4629    2.8435    5.3780 S   0  0  0  0  0  0  0  0  0  0  0  0
    0.0000    0.0000    0.0000 S   0  0  0  0  0  0  0  0  0  0  0  0
   -4.4594    1.5987    8.5695 H   0  0  0  0  0  0  0  0  0  0  0  0
   -4.6788   -0.1613    8.7176 H   0  0  0  0  0  0  0  0  0  0  0  0
   -3.3132    0.6476    9.5276 H   0  0  0  0  0  0  0  0  0  0  0  0
   -4.3365   -1.0893    6.5140 H   0  0  0  0  0  0  0  0  0  0  0  0
   -2.9773   -1.3600    4.4775 H   0  0  0  0  0  0  0  0  0  0  0  0
   -0.2300    1.6348    5.9004 H   0  0  0  0  0  0  0  0  0  0  0  0
   -1.5901    1.8940    7.9647 H   0  0  0  0  0  0  0  0  0  0  0  0
   -3.2041   -0.3390    2.6312 H   0  0  0  0  0  0  0  0  0  0  0  0
   -2.5702   -0.0783    0.9980 H   0  0  0  0  0  0  0  0  0  0  0  0
   -2.7090    2.0956    3.1578 H   0  0  0  0  0  0  0  0  0  0  0  0
   -3.9490    1.8474    1.9165 H   0  0  0  0  0  0  0  0  0  0  0  0
   -0.8125    3.7874   -0.5792 H   0  0  0  0  0  0  0  0  0  0  0  0
    0.7075    3.5865    0.3186 H   0  0  0  0  0  0  0  0  0  0  0  0
    0.5002    5.9818    0.1168 H   0  0  0  0  0  0  0  0  0  0  0  0
   -1.2596    5.9293    0.3543 H   0  0  0  0  0  0  0  0  0  0  0  0
    0.5207    4.8816    3.9190 H   0  0  0  0  0  0  0  0  0  0  0  0
    1.4278    4.4332    2.4763 H   0  0  0  0  0  0  0  0  0  0  0  0
   -1.1938    3.2973    3.5149 H   0  0  0  0  0  0  0  0  0  0  0  0
    0.2481    2.4524    2.8929 H   0  0  0  0  0  0  0  0  0  0  0  0
   -1.3224    7.4642    2.2579 H   0  0  0  0  0  0  0  0  0  0  0  0
   -0.8707    6.7336    3.8138 H   0  0  0  0  0  0  0  0  0  0  0  0
   -6.8164    3.5700    2.6994 H   0  0  0  0  0  0  0  0  0  0  0  0
   -7.7439    1.6844    4.3306 H   0  0  0  0  0  0  0  0  0  0  0  0
   -6.0111    1.1598    6.2635 H   0  0  0  0  0  0  0  0  0  0  0  0
    1.3209   -0.2867   -0.0416 H   0  0  0  0  0  0  0  0  0  0  0  0
  1 36  1  0  0  0  0
  1 37  1  0  0  0  0
  2  1  1  0  0  0  0
  3 38  1  0  0  0  0
  3  2  2  0  0  0  0
  4  3  1  0  0  0  0
  5  4  2  0  0  0  0
  5  6  1  0  0  0  0
  6  7  2  0  0  0  0
  7  2  1  0  0  0  0
  7 41  1  0  0  0  0
  8  9  2  0  0  0  0
  8  5  1  0  0  0  0
 10  9  1  0  0  0  0
 11 12  1  0  0  0  0
 11 10  2  0  0  0  0
 12  8  1  0  0  0  0
 13 14  1  0  0  0  0
 13 12  1  0  0  0  0
 13 42  1  0  0  0  0
 14 44  1  0  0  0  0
 15 17  1  0  0  0  0
 15 14  1  0  0  0  0
 16 15  2  0  0  0  0
 17 22  1  0  0  0  0
 18 19  1  0  0  0  0
 18 17  1  0  0  0  0
 19 20  1  0  0  0  0
 20 23  1  0  0  0  0
 20 21  1  0  0  0  0
 21 50  1  0  0  0  0
 22 21  1  0  0  0  0
 22 53  1  0  0  0  0
 22 52  1  0  0  0  0
 23 24  1  0  0  0  0
 23 55  1  0  0  0  0
 24 28  2  0  0  0  0
 25 26  1  0  0  0  0
 25 24  1  0  0  0  0
 26 27  2  0  0  0  0
 27 28  2  0  0  0  0
 27 29  1  0  0  0  0
 29 33  1  0  0  0  0
 30 29  2  0  0  0  0
 30 31  1  0  0  0  0
 31 32  2  0  0  0  0
 32 58  1  0  0  0  0
 33 32  1  0  0  0  0
 34 11  1  0  0  0  0
 35  1  1  0  0  0  0
 39  4  1  0  0  0  0
 40  6  1  0  0  0  0
 43 13  1  0  0  0  0
 45 14  1  0  0  0  0
 46 18  1  0  0  0  0
 47 18  1  0  0  0  0
 48 19  1  0  0  0  0
 49 19  1  0  0  0  0
 51 21  1  0  0  0  0
 54 23  1  0  0  0  0
 56 30  1  0  0  0  0
 57 31  1  0  0  0  0
 59 34  1  0  0  0  0
M  END
