53745490.xyz
 OpenBabel08132112133D
O=C(c1cccnc1S)NCc1ccc(nc1)N1CCOCC1
 41 43  0  0  1  0  0  0  0  0999 V2000
   -3.4820    0.7243    2.4997 O   0  0  0  0  0  0  0  0  0  0  0  0
   -2.6016    0.0611    1.9670 C   0  0  0  0  0  0  0  0  0  0  0  0
   -1.2035    0.0529    2.5312 C   0  0  2  0  0  0  0  0  0  0  0  0
   -1.0882    0.1730    3.9208 C   0  0  0  0  0  0  0  0  0  0  0  0
    0.1670    0.1728    4.5235 C   0  0  0  0  0  0  0  0  0  0  0  0
    1.2854    0.0686    3.6941 C   0  0  0  0  0  0  0  0  0  0  0  0
    1.2024    0.0000    2.3656 N   0  0  0  0  0  0  0  0  0  0  0  0
   -0.0000   -0.0000    1.7896 C   0  0  0  0  0  0  0  0  0  0  0  0
    0.0000    0.0000    0.0000 S   0  0  0  0  0  0  0  0  0  0  0  0
   -2.8236   -0.7352    0.8872 N   0  0  0  0  0  0  0  0  0  0  0  0
   -4.0805   -0.6880    0.1468 C   0  0  0  0  0  0  0  0  0  0  0  0
   -4.0576    0.3162   -0.9789 C   0  0  1  0  0  0  0  0  0  0  0  0
   -4.0639    1.7005   -0.7287 C   0  0  0  0  0  0  0  0  0  0  0  0
   -3.9945    2.5996   -1.7804 C   0  0  0  0  0  0  0  0  0  0  0  0
   -3.9188    2.0934   -3.1067 C   0  0  0  0  0  0  0  0  0  0  0  0
   -3.9149    0.7726   -3.3452 N   0  0  0  0  0  0  0  0  0  0  0  0
   -3.9771   -0.0712   -2.3176 C   0  0  0  0  0  0  0  0  0  0  0  0
   -3.8497    2.9351   -4.1912 N   0  0  0  0  0  0  0  0  0  0  0  0
   -3.7042    2.4251   -5.5457 C   0  0  0  0  0  0  0  0  0  0  0  0
   -2.5698    3.1513   -6.2591 C   0  0  0  0  0  0  0  0  0  0  0  0
   -2.6692    4.5703   -6.1694 O   0  0  0  0  0  0  0  0  0  0  0  0
   -3.7451    5.0476   -5.3972 C   0  0  0  0  0  0  0  0  0  0  0  0
   -3.8091    4.3794   -4.0271 C   0  0  0  0  0  0  0  0  0  0  0  0
   -2.0069    0.2671    4.5032 H   0  0  0  0  0  0  0  0  0  0  0  0
    0.2795    0.2524    5.6060 H   0  0  0  0  0  0  0  0  0  0  0  0
    2.2960    0.0496    4.1171 H   0  0  0  0  0  0  0  0  0  0  0  0
    1.3450   -0.1258   -0.0584 H   0  0  0  0  0  0  0  0  0  0  0  0
   -2.0396   -1.2162    0.4590 H   0  0  0  0  0  0  0  0  0  0  0  0
   -4.2896   -1.6947   -0.2457 H   0  0  0  0  0  0  0  0  0  0  0  0
   -4.8629   -0.4362    0.8759 H   0  0  0  0  0  0  0  0  0  0  0  0
   -4.1190    2.0604    0.3018 H   0  0  0  0  0  0  0  0  0  0  0  0
   -3.9975    3.6700   -1.5819 H   0  0  0  0  0  0  0  0  0  0  0  0
   -3.9668   -1.1396   -2.5730 H   0  0  0  0  0  0  0  0  0  0  0  0
   -4.6489    2.5350   -6.1103 H   0  0  0  0  0  0  0  0  0  0  0  0
   -3.4932    1.3512   -5.4813 H   0  0  0  0  0  0  0  0  0  0  0  0
   -2.5565    2.8609   -7.3254 H   0  0  0  0  0  0  0  0  0  0  0  0
   -1.6047    2.8450   -5.8161 H   0  0  0  0  0  0  0  0  0  0  0  0
   -3.5896    6.1289   -5.2688 H   0  0  0  0  0  0  0  0  0  0  0  0
   -4.7121    4.9184   -5.9235 H   0  0  0  0  0  0  0  0  0  0  0  0
   -2.9231    4.6785   -3.4348 H   0  0  0  0  0  0  0  0  0  0  0  0
   -4.7017    4.7458   -3.4849 H   0  0  0  0  0  0  0  0  0  0  0  0
  2  1  2  0  0  0  0
  3  2  1  6  0  0  0
  3  4  1  0  0  0  0
  4 24  1  0  0  0  0
  4  5  2  0  0  0  0
  5 25  1  0  0  0  0
  6 26  1  0  0  0  0
  6  5  1  0  0  0  0
  7  6  2  0  0  0  0
  8  7  2  0  0  0  0
  8  3  1  0  0  0  0
  9  8  1  0  0  0  0
 10  2  1  0  0  0  0
 11 30  1  0  0  0  0
 11 10  1  0  0  0  0
 12 13  1  0  0  0  0
 12 11  1  1  0  0  0
 13 31  1  0  0  0  0
 14 32  1  0  0  0  0
 14 13  2  0  0  0  0
 15 14  1  0  0  0  0
 16 15  2  0  0  0  0
 16 17  2  0  0  0  0
 17 12  1  0  0  0  0
 18 23  1  0  0  0  0
 18 15  1  0  0  0  0
 19 35  1  0  0  0  0
 19 18  1  0  0  0  0
 20 21  1  0  0  0  0
 20 37  1  0  0  0  0
 20 19  1  0  0  0  0
 21 22  1  0  0  0  0
 22 38  1  0  0  0  0
 22 23  1  0  0  0  0
 23 41  1  0  0  0  0
 23 40  1  0  0  0  0
 27  9  1  0  0  0  0
 28 10  1  0  0  0  0
 29 11  1  0  0  0  0
 33 17  1  0  0  0  0
 34 19  1  0  0  0  0
 36 20  1  0  0  0  0
 39 22  1  0  0  0  0
M  RAD  2   3   2  12   2
M  END
