54506435.xyz
 OpenBabel08132112133D
BrCc1ccc(c(c1CC(=O)O)C#N)S
 23 23  0  0  0  0  0  0  0  0999 V2000
    0.5424    1.7691    6.8670 Br  0  0  0  0  0  0  0  0  0  0  0  0
    0.1169   -0.0169    6.0954 C   0  0  0  0  0  0  0  0  0  0  0  0
    0.1206   -0.0115    4.6021 C   0  0  0  0  0  0  0  0  0  0  0  0
   -1.1059   -0.0033    3.9192 C   0  0  0  0  0  0  0  0  0  0  0  0
   -1.1751    0.0012    2.5315 C   0  0  0  0  0  0  0  0  0  0  0  0
   -0.0000   -0.0000    1.7687 C   0  0  0  0  0  0  0  0  0  0  0  0
    1.2429   -0.0000    2.4464 C   0  0  0  0  0  0  0  0  0  0  0  0
    1.3135    0.0003    3.8566 C   0  0  0  0  0  0  0  0  0  0  0  0
    2.6622    0.0751    4.5197 C   0  0  0  0  0  0  0  0  0  0  0  0
    3.2223    1.4918    4.5275 C   0  0  0  0  0  0  0  0  0  0  0  0
    2.8493    2.3949    3.8277 O   0  0  0  0  0  0  0  0  0  0  0  0
    4.2384    1.5970    5.4015 O   0  0  0  0  0  0  0  0  0  0  0  0
    2.4574   -0.0062    1.6851 C   0  0  0  0  0  0  0  0  0  0  0  0
    3.4458   -0.0351    1.0767 N   0  0  0  0  0  0  0  0  0  0  0  0
    0.0000    0.0000    0.0000 S   0  0  0  0  0  0  0  0  0  0  0  0
    0.8638   -0.6902    6.5299 H   0  0  0  0  0  0  0  0  0  0  0  0
   -0.8705   -0.2695    6.4955 H   0  0  0  0  0  0  0  0  0  0  0  0
   -2.0338    0.0003    4.4963 H   0  0  0  0  0  0  0  0  0  0  0  0
   -2.1484    0.0053    2.0373 H   0  0  0  0  0  0  0  0  0  0  0  0
    3.3993   -0.5404    3.9781 H   0  0  0  0  0  0  0  0  0  0  0  0
    2.6500   -0.2930    5.5524 H   0  0  0  0  0  0  0  0  0  0  0  0
    4.5734    2.5078    5.3354 H   0  0  0  0  0  0  0  0  0  0  0  0
   -1.3452    0.0013   -0.1314 H   0  0  0  0  0  0  0  0  0  0  0  0
  2 17  1  0  0  0  0
  2 16  1  0  0  0  0
  2  1  1  0  0  0  0
  3  2  1  0  0  0  0
  4 18  1  0  0  0  0
  4  3  1  0  0  0  0
  5  4  2  0  0  0  0
  6  7  2  0  0  0  0
  6  5  1  0  0  0  0
  7  8  1  0  0  0  0
  8  9  1  0  0  0  0
  8  3  2  0  0  0  0
  9 10  1  0  0  0  0
  9 21  1  0  0  0  0
 10 12  1  0  0  0  0
 11 10  2  0  0  0  0
 13  7  1  0  0  0  0
 14 13  3  0  0  0  0
 15  6  1  0  0  0  0
 19  5  1  0  0  0  0
 20  9  1  0  0  0  0
 22 12  1  0  0  0  0
 23 15  1  0  0  0  0
M  END
