54518761.xyz
 OpenBabel08132112133D
Clc1ccc(c(n1)S)F
 12 12  0  0  0  0  0  0  0  0999 V2000
    2.6726    0.0001    4.5829 Cl  0  0  0  0  0  0  0  0  0  0  0  0
    1.1293    0.0000    3.7621 C   0  0  0  0  0  0  0  0  0  0  0  0
   -0.0430    0.0001    4.5260 C   0  0  0  0  0  0  0  0  0  0  0  0
   -1.2563    0.0000    3.8341 C   0  0  0  0  0  0  0  0  0  0  0  0
   -1.2313   -0.0000    2.4474 C   0  0  0  0  0  0  0  0  0  0  0  0
    0.0000   -0.0000    1.7710 C   0  0  0  0  0  0  0  0  0  0  0  0
    1.1499   -0.0000    2.4414 N   0  0  0  0  0  0  0  0  0  0  0  0
    0.0000    0.0000    0.0000 S   0  0  0  0  0  0  0  0  0  0  0  0
   -2.3658   -0.0000    1.7402 F   0  0  0  0  0  0  0  0  0  0  0  0
   -0.0014    0.0001    5.6145 H   0  0  0  0  0  0  0  0  0  0  0  0
   -2.2162    0.0001    4.3540 H   0  0  0  0  0  0  0  0  0  0  0  0
    1.3501    0.0002   -0.0694 H   0  0  0  0  0  0  0  0  0  0  0  0
  2  3  1  0  0  0  0
  2  1  1  0  0  0  0
  3 10  1  0  0  0  0
  4 11  1  0  0  0  0
  4  3  1  0  0  0  0
  5  4  2  0  0  0  0
  6  7  2  0  0  0  0
  6  5  1  0  0  0  0
  7  2  2  0  0  0  0
  8  6  1  0  0  0  0
  9  5  1  0  0  0  0
 12  8  1  0  0  0  0
M  RAD  1   3   2
M  END
