54532245.xyz
 OpenBabel08132112133D
N#Cc1ccc(c(c1S)OC(F)F)CC(=O)O
 24 24  0  0  0  0  0  0  0  0999 V2000
    3.4797   -0.0156    1.1761 N   0  0  0  0  0  0  0  0  0  0  0  0
    2.4701   -0.0048    1.7491 C   0  0  0  0  0  0  0  0  0  0  0  0
    1.2314    0.0000    2.4702 C   0  0  0  0  0  0  0  0  0  0  0  0
    1.2437    0.0150    3.8741 C   0  0  0  0  0  0  0  0  0  0  0  0
    0.0505    0.0496    4.5877 C   0  0  0  0  0  0  0  0  0  0  0  0
   -1.1822    0.0370    3.9243 C   0  0  0  0  0  0  0  0  0  0  0  0
   -1.1864   -0.0151    2.5241 C   0  0  0  0  0  0  0  0  0  0  0  0
    0.0000    0.0000    1.7724 C   0  0  0  0  0  0  0  0  0  0  0  0
    0.0000    0.0000    0.0000 S   0  0  0  0  0  0  0  0  0  0  0  0
   -2.4055   -0.0165    1.8632 O   0  0  0  0  0  0  0  0  0  0  0  0
   -2.8558   -1.2361    1.4099 C   0  0  0  0  0  0  0  0  0  0  0  0
   -3.5392   -1.8750    2.3930 F   0  0  0  0  0  0  0  0  0  0  0  0
   -3.7098   -0.9924    0.4110 F   0  0  0  0  0  0  0  0  0  0  0  0
   -2.4826    0.1128    4.6739 C   0  0  0  0  0  0  0  0  0  0  0  0
   -3.1939    1.4412    4.4683 C   0  0  0  0  0  0  0  0  0  0  0  0
   -2.7475    2.3982    3.8929 O   0  0  0  0  0  0  0  0  0  0  0  0
   -4.4129    1.4210    5.0379 O   0  0  0  0  0  0  0  0  0  0  0  0
    2.2027    0.0169    4.3939 H   0  0  0  0  0  0  0  0  0  0  0  0
    0.0706    0.0898    5.6784 H   0  0  0  0  0  0  0  0  0  0  0  0
   -1.2601    0.4766   -0.1196 H   0  0  0  0  0  0  0  0  0  0  0  0
   -2.0389   -1.8939    1.0686 H   0  0  0  0  0  0  0  0  0  0  0  0
   -2.3173   -0.0127    5.7551 H   0  0  0  0  0  0  0  0  0  0  0  0
   -3.1747   -0.6841    4.3672 H   0  0  0  0  0  0  0  0  0  0  0  0
   -4.8118    2.2946    4.8829 H   0  0  0  0  0  0  0  0  0  0  0  0
  1  2  3  0  0  0  0
  2  3  1  0  0  0  0
  3  4  1  0  0  0  0
  4 18  1  0  0  0  0
  4  5  2  0  0  0  0
  5 19  1  0  0  0  0
  6  5  1  0  0  0  0
  6 14  1  0  0  0  0
  7  6  2  0  0  0  0
  8  3  2  0  0  0  0
  8  7  1  0  0  0  0
  9  8  1  0  0  0  0
 10  7  1  0  0  0  0
 11 10  1  0  0  0  0
 11 12  1  0  0  0  0
 13 11  1  0  0  0  0
 14 22  1  0  0  0  0
 15 14  1  0  0  0  0
 15 17  1  0  0  0  0
 16 15  2  0  0  0  0
 20  9  1  0  0  0  0
 21 11  1  0  0  0  0
 23 14  1  0  0  0  0
 24 17  1  0  0  0  0
M  END
