54538213.xyz
 OpenBabel08132112133D
CCOC(=O)c1cc(S)cc(c1C#N)C(F)F
 26 26  0  0  0  0  0  0  0  0999 V2000
   -5.1559    1.4132    5.0225 C   0  0  0  0  0  0  0  0  0  0  0  0
   -4.7596    0.0094    4.6031 C   0  0  0  0  0  0  0  0  0  0  0  0
   -3.4771   -0.0039    3.9438 O   0  0  0  0  0  0  0  0  0  0  0  0
   -2.3879   -0.0146    4.7294 C   0  0  0  0  0  0  0  0  0  0  0  0
   -2.4276   -0.0319    5.9352 O   0  0  0  0  0  0  0  0  0  0  0  0
   -1.1201   -0.0056    3.9307 C   0  0  0  0  0  0  0  0  0  0  0  0
   -1.1725   -0.0005    2.5347 C   0  0  0  0  0  0  0  0  0  0  0  0
   -0.0000    0.0000    1.7689 C   0  0  0  0  0  0  0  0  0  0  0  0
    0.0000    0.0000    0.0000 S   0  0  0  0  0  0  0  0  0  0  0  0
    1.2413    0.0000    2.4242 C   0  0  0  0  0  0  0  0  0  0  0  0
    1.3097    0.0004    3.8132 C   0  0  0  0  0  0  0  0  0  0  0  0
    0.1299   -0.0031    4.5904 C   0  0  0  0  0  0  0  0  0  0  0  0
    0.2691   -0.0194    6.0190 C   0  0  0  0  0  0  0  0  0  0  0  0
    0.5491   -0.0442    7.1455 N   0  0  0  0  0  0  0  0  0  0  0  0
    2.6631    0.0621    4.4906 C   0  0  0  0  0  0  0  0  0  0  0  0
    3.6428   -0.3110    3.6255 F   0  0  0  0  0  0  0  0  0  0  0  0
    2.9200    1.3406    4.8749 F   0  0  0  0  0  0  0  0  0  0  0  0
   -4.4657    1.8008    5.7856 H   0  0  0  0  0  0  0  0  0  0  0  0
   -5.1554    2.0964    4.1592 H   0  0  0  0  0  0  0  0  0  0  0  0
   -6.1698    1.4005    5.4523 H   0  0  0  0  0  0  0  0  0  0  0  0
   -4.7163   -0.6651    5.4704 H   0  0  0  0  0  0  0  0  0  0  0  0
   -5.4548   -0.4023    3.8584 H   0  0  0  0  0  0  0  0  0  0  0  0
   -2.1517   -0.0006    2.0577 H   0  0  0  0  0  0  0  0  0  0  0  0
   -1.3425    0.0025   -0.1548 H   0  0  0  0  0  0  0  0  0  0  0  0
    2.1705   -0.0059    1.8530 H   0  0  0  0  0  0  0  0  0  0  0  0
    2.7207   -0.5810    5.3832 H   0  0  0  0  0  0  0  0  0  0  0  0
  1 20  1  0  0  0  0
  1 18  1  0  0  0  0
  2  1  1  0  0  0  0
  2 21  1  0  0  0  0
  3  2  1  0  0  0  0
  3  4  1  0  0  0  0
  4  5  2  0  0  0  0
  6 12  1  0  0  0  0
  6  4  1  0  0  0  0
  7  6  2  0  0  0  0
  8 10  2  0  0  0  0
  8  7  1  0  0  0  0
  9  8  1  0  0  0  0
 10 11  1  0  0  0  0
 11 15  1  0  0  0  0
 11 12  2  0  0  0  0
 12 13  1  0  0  0  0
 13 14  3  0  0  0  0
 15 17  1  0  0  0  0
 15 26  1  0  0  0  0
 16 15  1  0  0  0  0
 19  1  1  0  0  0  0
 22  2  1  0  0  0  0
 23  7  1  0  0  0  0
 24  9  1  0  0  0  0
 25 10  1  0  0  0  0
M  END
