54542711.xyz
 OpenBabel08132112133D
COC(=O)Cc1cc(CC)c(cc1C#N)S
 29 29  0  0  0  0  0  0  0  0999 V2000
    1.3033    2.8688    8.4873 C   0  0  0  0  0  0  0  0  0  0  0  0
    0.8420    1.6433    7.9156 O   0  0  0  0  0  0  0  0  0  0  0  0
    0.7481    1.6171    6.5770 C   0  0  0  0  0  0  0  0  0  0  0  0
    0.9995    2.5544    5.8650 O   0  0  0  0  0  0  0  0  0  0  0  0
    0.2848    0.2438    6.1067 C   0  0  0  0  0  0  0  0  0  0  0  0
    0.1875    0.1421    4.6104 C   0  0  0  0  0  0  0  0  0  0  0  0
   -1.0459    0.1366    3.9607 C   0  0  0  0  0  0  0  0  0  0  0  0
   -1.1774    0.0822    2.5655 C   0  0  0  0  0  0  0  0  0  0  0  0
   -2.5528    0.0790    1.9475 C   0  0  0  0  0  0  0  0  0  0  0  0
   -3.1073   -1.3370    1.7321 C   0  0  0  0  0  0  0  0  0  0  0  0
    0.0000    0.0000    1.7903 C   0  0  0  0  0  0  0  0  0  0  0  0
    1.2499    0.0000    2.4177 C   0  0  0  0  0  0  0  0  0  0  0  0
    1.3509    0.0804    3.8132 C   0  0  0  0  0  0  0  0  0  0  0  0
    2.6421    0.0798    4.4373 C   0  0  0  0  0  0  0  0  0  0  0  0
    3.6726    0.0663    4.9720 N   0  0  0  0  0  0  0  0  0  0  0  0
    0.0000    0.0000    0.0000 S   0  0  0  0  0  0  0  0  0  0  0  0
    0.6257    3.6975    8.2325 H   0  0  0  0  0  0  0  0  0  0  0  0
    1.3240    2.7111    9.5723 H   0  0  0  0  0  0  0  0  0  0  0  0
    2.3094    3.1138    8.1157 H   0  0  0  0  0  0  0  0  0  0  0  0
    0.9949   -0.4923    6.5170 H   0  0  0  0  0  0  0  0  0  0  0  0
   -0.6852    0.0341    6.5827 H   0  0  0  0  0  0  0  0  0  0  0  0
   -1.9555    0.1970    4.5649 H   0  0  0  0  0  0  0  0  0  0  0  0
   -2.5166    0.6161    0.9865 H   0  0  0  0  0  0  0  0  0  0  0  0
   -3.2395    0.6391    2.6017 H   0  0  0  0  0  0  0  0  0  0  0  0
   -4.1049   -1.3039    1.2670 H   0  0  0  0  0  0  0  0  0  0  0  0
   -2.4512   -1.9373    1.0813 H   0  0  0  0  0  0  0  0  0  0  0  0
   -3.1926   -1.8754    2.6889 H   0  0  0  0  0  0  0  0  0  0  0  0
    2.1574   -0.0707    1.8169 H   0  0  0  0  0  0  0  0  0  0  0  0
   -0.9714   -0.9219   -0.1820 H   0  0  0  0  0  0  0  0  0  0  0  0
  1 18  1  0  0  0  0
  2  1  1  0  0  0  0
  3  2  1  0  0  0  0
  4  3  2  0  0  0  0
  5 20  1  0  0  0  0
  5  3  1  0  0  0  0
  5 21  1  0  0  0  0
  6  5  1  0  0  0  0
  7 22  1  0  0  0  0
  7  6  1  0  0  0  0
  8  7  2  0  0  0  0
  9  8  1  0  0  0  0
  9 24  1  0  0  0  0
 10  9  1  0  0  0  0
 10 27  1  0  0  0  0
 11 12  2  0  0  0  0
 11  8  1  0  0  0  0
 12 13  1  0  0  0  0
 13 14  1  0  0  0  0
 13  6  2  0  0  0  0
 14 15  3  0  0  0  0
 16 11  1  0  0  0  0
 17  1  1  0  0  0  0
 19  1  1  0  0  0  0
 23  9  1  0  0  0  0
 25 10  1  0  0  0  0
 26 10  1  0  0  0  0
 28 12  1  0  0  0  0
 29 16  1  0  0  0  0
M  END
