54564281.xyz
 OpenBabel08132112133D
CCOC(=O)Cc1c(S)ccnc1C#N
 25 25  0  0  1  0  0  0  0  0999 V2000
    5.4988    2.3710   -1.1428 C   0  0  0  0  0  0  0  0  0  0  0  0
    4.3850    2.6510   -0.1585 C   0  0  0  0  0  0  0  0  0  0  0  0
    3.8956    1.3862    0.3264 O   0  0  0  0  0  0  0  0  0  0  0  0
    2.9078    1.4328    1.2285 C   0  0  0  0  0  0  0  0  0  0  0  0
    2.4026    2.4472    1.6352 O   0  0  0  0  0  0  0  0  0  0  0  0
    2.5387    0.0263    1.6887 C   0  0  0  0  0  0  0  0  0  0  0  0
    1.2400    0.0000    2.4407 C   0  0  2  0  0  0  0  0  0  0  0  0
   -0.0000   -0.0000    1.7704 C   0  0  0  0  0  0  0  0  0  0  0  0
    0.0000    0.0000    0.0000 S   0  0  0  0  0  0  0  0  0  0  0  0
   -1.1754    0.0072    2.5317 C   0  0  0  0  0  0  0  0  0  0  0  0
   -1.0796    0.0213    3.9241 C   0  0  0  0  0  0  0  0  0  0  0  0
    0.0763    0.0305    4.5810 N   0  0  0  0  0  0  0  0  0  0  0  0
    1.1959    0.0231    3.8481 C   0  0  0  0  0  0  0  0  0  0  0  0
    2.4411    0.0433    4.5853 C   0  0  0  0  0  0  0  0  0  0  0  0
    3.4574    0.0553    5.1439 N   0  0  0  0  0  0  0  0  0  0  0  0
    5.1333    1.7706   -1.9899 H   0  0  0  0  0  0  0  0  0  0  0  0
    5.8987    3.3181   -1.5364 H   0  0  0  0  0  0  0  0  0  0  0  0
    6.3212    1.8220   -0.6595 H   0  0  0  0  0  0  0  0  0  0  0  0
    3.5481    3.1986   -0.6207 H   0  0  0  0  0  0  0  0  0  0  0  0
    4.7282    3.2499    0.7000 H   0  0  0  0  0  0  0  0  0  0  0  0
    3.3673   -0.3277    2.3214 H   0  0  0  0  0  0  0  0  0  0  0  0
    2.5154   -0.6381    0.8110 H   0  0  0  0  0  0  0  0  0  0  0  0
   -1.3432   -0.0085   -0.1449 H   0  0  0  0  0  0  0  0  0  0  0  0
   -2.1567    0.0062    2.0532 H   0  0  0  0  0  0  0  0  0  0  0  0
   -1.9904    0.0279    4.5326 H   0  0  0  0  0  0  0  0  0  0  0  0
  1 18  1  0  0  0  0
  1  2  1  0  0  0  0
  2  3  1  0  0  0  0
  2 20  1  0  0  0  0
  3  4  1  0  0  0  0
  4  5  2  0  0  0  0
  4  6  1  0  0  0  0
  6 21  1  0  0  0  0
  7  6  1  6  0  0  0
  7 13  1  0  0  0  0
  8  7  1  0  0  0  0
  8 10  2  0  0  0  0
  9  8  1  0  0  0  0
 10 11  1  0  0  0  0
 11 25  1  0  0  0  0
 11 12  2  0  0  0  0
 13 12  2  0  0  0  0
 13 14  1  0  0  0  0
 14 15  3  0  0  0  0
 16  1  1  0  0  0  0
 17  1  1  0  0  0  0
 19  2  1  0  0  0  0
 22  6  1  0  0  0  0
 23  9  1  0  0  0  0
 24 10  1  0  0  0  0
M  RAD  1   7   2
M  END
