54564419.xyz
 OpenBabel08132112133D
N#Cc1ccc(nc1S)C(=O)Cl
 15 15  0  0  1  0  0  0  0  0999 V2000
   -3.5284   -0.0003    1.4825 N   0  0  0  0  0  0  0  0  0  0  0  0
   -2.4791   -0.0002    1.9808 C   0  0  0  0  0  0  0  0  0  0  0  0
   -1.1770   -0.0001    2.5697 C   0  0  1  0  0  0  0  0  0  0  0  0
   -1.0261   -0.0002    3.9645 C   0  0  0  0  0  0  0  0  0  0  0  0
    0.2505   -0.0002    4.5155 C   0  0  0  0  0  0  0  0  0  0  0  0
    1.3394   -0.0000    3.6327 C   0  0  0  0  0  0  0  0  0  0  0  0
    1.2103    0.0000    2.3104 N   0  0  0  0  0  0  0  0  0  0  0  0
   -0.0000   -0.0000    1.7642 C   0  0  0  0  0  0  0  0  0  0  0  0
    0.0000    0.0000    0.0000 S   0  0  0  0  0  0  0  0  0  0  0  0
    2.7210    0.0000    4.2373 C   0  0  0  0  0  0  0  0  0  0  0  0
    2.9247   -0.0003    5.4114 O   0  0  0  0  0  0  0  0  0  0  0  0
    4.0451    0.0006    3.0562 Cl  0  0  0  0  0  0  0  0  0  0  0  0
   -1.9135   -0.0004    4.6000 H   0  0  0  0  0  0  0  0  0  0  0  0
    0.4197   -0.0003    5.5917 H   0  0  0  0  0  0  0  0  0  0  0  0
   -1.3439    0.0002   -0.1585 H   0  0  0  0  0  0  0  0  0  0  0  0
  1  2  3  0  0  0  0
  3  2  1  6  0  0  0
  3  4  1  0  0  0  0
  4  5  2  0  0  0  0
  4 13  1  0  0  0  0
  5 14  1  0  0  0  0
  6 10  1  0  0  0  0
  6  5  1  0  0  0  0
  7  6  2  0  0  0  0
  8  7  2  0  0  0  0
  8  3  1  0  0  0  0
  9  8  1  0  0  0  0
 10 11  2  0  0  0  0
 12 10  1  0  0  0  0
 15  9  1  0  0  0  0
M  RAD  1   3   2
M  END
