54564389.xyz
 OpenBabel08132112133D
COC(=O)Cc1cc(S)c(cn1)C#N
 22 22  0  0  1  0  0  0  0  0999 V2000
   -5.3520   -2.3889    4.7928 C   0  0  0  0  0  0  0  0  0  0  0  0
   -4.2801   -1.5042    5.1286 O   0  0  0  0  0  0  0  0  0  0  0  0
   -3.6382   -0.9361    4.0988 C   0  0  0  0  0  0  0  0  0  0  0  0
   -3.9162   -1.1485    2.9427 O   0  0  0  0  0  0  0  0  0  0  0  0
   -2.5699    0.0245    4.5871 C   0  0  0  0  0  0  0  0  0  0  0  0
   -1.2672   -0.0073    3.8195 C   0  0  0  0  0  0  0  0  0  0  0  0
   -1.2340    0.0007    2.4218 C   0  0  0  0  0  0  0  0  0  0  0  0
    0.0000   -0.0000    1.7588 C   0  0  0  0  0  0  0  0  0  0  0  0
    0.0000    0.0000    0.0000 S   0  0  0  0  0  0  0  0  0  0  0  0
    1.1699   -0.0000    2.5583 C   0  0  1  0  0  0  0  0  0  0  0  0
    1.0190   -0.0057    3.9578 C   0  0  0  0  0  0  0  0  0  0  0  0
   -0.1548   -0.0108    4.5724 N   0  0  0  0  0  0  0  0  0  0  0  0
    2.4736    0.0041    1.9739 C   0  0  0  0  0  0  0  0  0  0  0  0
    3.5231    0.0079    1.4751 N   0  0  0  0  0  0  0  0  0  0  0  0
   -4.9831   -3.2343    4.1933 H   0  0  0  0  0  0  0  0  0  0  0  0
   -5.7622   -2.7448    5.7452 H   0  0  0  0  0  0  0  0  0  0  0  0
   -6.1246   -1.8615    4.2136 H   0  0  0  0  0  0  0  0  0  0  0  0
   -3.0097    1.0360    4.5074 H   0  0  0  0  0  0  0  0  0  0  0  0
   -2.3561   -0.1520    5.6473 H   0  0  0  0  0  0  0  0  0  0  0  0
   -2.1691   -0.0184    1.8628 H   0  0  0  0  0  0  0  0  0  0  0  0
    1.3438    0.0084   -0.1610 H   0  0  0  0  0  0  0  0  0  0  0  0
    1.9154   -0.0086    4.5874 H   0  0  0  0  0  0  0  0  0  0  0  0
  1  2  1  0  0  0  0
  1 16  1  0  0  0  0
  3  5  1  0  0  0  0
  3  2  1  0  0  0  0
  4  3  2  0  0  0  0
  5 19  1  0  0  0  0
  6 12  2  0  0  0  0
  6  5  1  0  0  0  0
  7  6  1  0  0  0  0
  8  7  2  0  0  0  0
  8 10  1  0  0  0  0
  9  8  1  0  0  0  0
 10 13  1  6  0  0  0
 10 11  1  0  0  0  0
 11 12  2  0  0  0  0
 11 22  1  0  0  0  0
 14 13  3  0  0  0  0
 15  1  1  0  0  0  0
 17  1  1  0  0  0  0
 18  5  1  0  0  0  0
 20  7  1  0  0  0  0
 21  9  1  0  0  0  0
M  RAD  1  10   2
M  END
