54563555.xyz
 OpenBabel08132112133D
COC(=O)c1cc(C#N)cc(c1S)C
 23 23  0  0  0  0  0  0  0  0999 V2000
    4.2424   -0.0159    0.5621 C   0  0  0  0  0  0  0  0  0  0  0  0
    2.8576   -0.0139    0.9269 O   0  0  0  0  0  0  0  0  0  0  0  0
    2.5921   -0.0007    2.2518 C   0  0  0  0  0  0  0  0  0  0  0  0
    3.4840    0.0083    3.0666 O   0  0  0  0  0  0  0  0  0  0  0  0
    1.1373   -0.0000    2.6252 C   0  0  0  0  0  0  0  0  0  0  0  0
    0.9449    0.0014    4.0168 C   0  0  0  0  0  0  0  0  0  0  0  0
   -0.3305    0.0021    4.5789 C   0  0  0  0  0  0  0  0  0  0  0  0
   -0.5026    0.0029    6.0023 C   0  0  0  0  0  0  0  0  0  0  0  0
   -0.6512    0.0035    7.1538 N   0  0  0  0  0  0  0  0  0  0  0  0
   -1.4488    0.0020    3.7259 C   0  0  0  0  0  0  0  0  0  0  0  0
   -1.3048    0.0012    2.3436 C   0  0  0  0  0  0  0  0  0  0  0  0
   -0.0000   -0.0000    1.7692 C   0  0  0  0  0  0  0  0  0  0  0  0
    0.0000    0.0000    0.0000 S   0  0  0  0  0  0  0  0  0  0  0  0
   -2.5291    0.0016    1.4667 C   0  0  0  0  0  0  0  0  0  0  0  0
    4.7456   -0.9046    0.9686 H   0  0  0  0  0  0  0  0  0  0  0  0
    4.2650   -0.0266   -0.5341 H   0  0  0  0  0  0  0  0  0  0  0  0
    4.7437    0.8816    0.9512 H   0  0  0  0  0  0  0  0  0  0  0  0
    1.8305    0.0020    4.6510 H   0  0  0  0  0  0  0  0  0  0  0  0
   -2.4508    0.0026    4.1591 H   0  0  0  0  0  0  0  0  0  0  0  0
    1.3398   -0.0039   -0.1497 H   0  0  0  0  0  0  0  0  0  0  0  0
   -2.5495    0.8861    0.8085 H   0  0  0  0  0  0  0  0  0  0  0  0
   -3.4456    0.0023    2.0720 H   0  0  0  0  0  0  0  0  0  0  0  0
   -2.5504   -0.8834    0.8091 H   0  0  0  0  0  0  0  0  0  0  0  0
  1  2  1  0  0  0  0
  1 17  1  0  0  0  0
  1 15  1  0  0  0  0
  2  3  1  0  0  0  0
  3  5  1  0  0  0  0
  3  4  2  0  0  0  0
  5  6  2  0  0  0  0
  6  7  1  0  0  0  0
  6 18  1  0  0  0  0
  7  8  1  0  0  0  0
  8  9  3  0  0  0  0
 10 19  1  0  0  0  0
 10  7  2  0  0  0  0
 11 10  1  0  0  0  0
 12 11  2  0  0  0  0
 12  5  1  0  0  0  0
 13 12  1  0  0  0  0
 14 22  1  0  0  0  0
 14 11  1  0  0  0  0
 16  1  1  0  0  0  0
 20 13  1  0  0  0  0
 21 14  1  0  0  0  0
 23 14  1  0  0  0  0
M  END
