54565501.xyz
 OpenBabel08132112133D
N#Cc1cc(S)cnc1C(F)(F)F
 16 16  0  0  1  0  0  0  0  0999 V2000
    3.5260   -0.0005    5.0602 N   0  0  0  0  0  0  0  0  0  0  0  0
    2.4910    0.0001    4.5371 C   0  0  0  0  0  0  0  0  0  0  0  0
    1.2334    0.0006    3.8469 C   0  0  0  0  0  0  0  0  0  0  0  0
    1.2243   -0.0000    2.4460 C   0  0  0  0  0  0  0  0  0  0  0  0
    0.0000    0.0000    1.7655 C   0  0  2  0  0  0  0  0  0  0  0  0
    0.0000    0.0000    0.0000 S   0  0  0  0  0  0  0  0  0  0  0  0
   -1.1729    0.0001    2.5443 C   0  0  0  0  0  0  0  0  0  0  0  0
   -1.1613    0.0009    3.8720 N   0  0  0  0  0  0  0  0  0  0  0  0
   -0.0076    0.0013    4.5221 C   0  0  0  0  0  0  0  0  0  0  0  0
   -0.0678    0.0024    6.0443 C   0  0  0  0  0  0  0  0  0  0  0  0
    0.5552   -1.0810    6.5399 F   0  0  0  0  0  0  0  0  0  0  0  0
   -1.3184    0.0036    6.4908 F   0  0  0  0  0  0  0  0  0  0  0  0
    0.5567    1.0856    6.5384 F   0  0  0  0  0  0  0  0  0  0  0  0
    2.1709   -0.0006    1.9024 H   0  0  0  0  0  0  0  0  0  0  0  0
   -1.3442   -0.0002   -0.1459 H   0  0  0  0  0  0  0  0  0  0  0  0
   -2.1570   -0.0004    2.0619 H   0  0  0  0  0  0  0  0  0  0  0  0
  2  1  3  0  0  0  0
  3  9  1  0  0  0  0
  3  2  1  0  0  0  0
  4  3  2  0  0  0  0
  5  6  1  6  0  0  0
  5  4  1  0  0  0  0
  5  7  1  0  0  0  0
  7  8  2  0  0  0  0
  8  9  2  0  0  0  0
  9 10  1  0  0  0  0
 10 12  1  0  0  0  0
 10 13  1  0  0  0  0
 10 11  1  0  0  0  0
 14  4  1  0  0  0  0
 15  6  1  0  0  0  0
 16  7  1  0  0  0  0
M  RAD  1   5   2
M  END
