54806888.xyz
 OpenBabel08132112133D
Clc1ccc2c(c1S)nc[nH]2
 16 17  0  0  1  0  0  0  0  0999 V2000
   -2.7174    0.0001    1.6748 Cl  0  0  0  0  0  0  0  0  0  0  0  0
   -1.1810   -0.0000    2.5123 C   0  0  0  0  0  0  0  0  0  0  0  0
   -1.1803   -0.0002    3.9227 C   0  0  0  0  0  0  0  0  0  0  0  0
    0.0055   -0.0002    4.6514 C   0  0  0  0  0  0  0  0  0  0  0  0
    1.1937   -0.0001    3.9114 C   0  0  0  0  0  0  0  0  0  0  0  0
    1.2055    0.0000    2.4961 C   0  0  0  0  0  0  0  0  0  0  0  0
    0.0000    0.0000    1.7619 C   0  0  1  0  0  0  0  0  0  0  0  0
    0.0000    0.0000    0.0000 S   0  0  0  0  0  0  0  0  0  0  0  0
    2.5042    0.0001    2.0240 N   0  0  0  0  0  0  0  0  0  0  0  0
    3.2581   -0.0000    3.0930 C   0  0  0  0  0  0  0  0  0  0  0  0
    2.5327   -0.0001    4.2618 N   0  0  0  0  0  0  0  0  0  0  0  0
   -2.1425   -0.0002    4.4365 H   0  0  0  0  0  0  0  0  0  0  0  0
   -0.0053   -0.0003    5.7424 H   0  0  0  0  0  0  0  0  0  0  0  0
    1.3540    0.0003   -0.0730 H   0  0  0  0  0  0  0  0  0  0  0  0
    4.3487    0.0000    3.0982 H   0  0  0  0  0  0  0  0  0  0  0  0
    2.9091   -0.0002    5.2011 H   0  0  0  0  0  0  0  0  0  0  0  0
  1  2  1  0  0  0  0
  2  3  2  0  0  0  0
  3 12  1  0  0  0  0
  3  4  1  0  0  0  0
  4 13  1  0  0  0  0
  5 11  1  0  0  0  0
  5  4  2  0  0  0  0
  6  5  1  0  0  0  0
  7  8  1  6  0  0  0
  7  6  1  0  0  0  0
  7  2  1  0  0  0  0
  9  6  2  0  0  0  0
  9 10  2  0  0  0  0
 10 15  1  0  0  0  0
 10 11  1  0  0  0  0
 11 16  1  0  0  0  0
 14  8  1  0  0  0  0
M  RAD  1   7   2
M  END
