5533191.xyz
 OpenBabel08132112133D
Sc1nnc(n1c1ccccc1)CSc1ncccn1
 31 33  0  0  0  0  0  0  0  0999 V2000
    0.0000    0.0000    0.0000 S   0  0  0  0  0  0  0  0  0  0  0  0
    0.0000   -0.0000    1.7584 C   0  0  0  0  0  0  0  0  0  0  0  0
   -1.0387    0.0014    2.5576 N   0  0  0  0  0  0  0  0  0  0  0  0
   -0.5617   -0.0025    3.8453 N   0  0  0  0  0  0  0  0  0  0  0  0
    0.7476   -0.0002    3.8038 C   0  0  0  0  0  0  0  0  0  0  0  0
    1.1700    0.0000    2.4825 N   0  0  0  0  0  0  0  0  0  0  0  0
    2.4993   -0.0011    1.9622 C   0  0  0  0  0  0  0  0  0  0  0  0
    3.1736   -1.2136    1.7877 C   0  0  0  0  0  0  0  0  0  0  0  0
    4.4775   -1.2081    1.2918 C   0  0  0  0  0  0  0  0  0  0  0  0
    5.0968    0.0004    0.9593 C   0  0  0  0  0  0  0  0  0  0  0  0
    4.4121    1.2079    1.1226 C   0  0  0  0  0  0  0  0  0  0  0  0
    3.1115    1.2105    1.6292 C   0  0  0  0  0  0  0  0  0  0  0  0
    1.6469   -0.0045    4.9855 C   0  0  0  0  0  0  0  0  0  0  0  0
    2.5595   -1.5913    5.2089 S   0  0  0  0  0  0  0  0  0  0  0  0
    4.2177   -1.1137    4.8071 C   0  0  0  0  0  0  0  0  0  0  0  0
    5.0721   -2.1436    4.7725 N   0  0  0  0  0  0  0  0  0  0  0  0
    6.3377   -1.8544    4.4801 C   0  0  0  0  0  0  0  0  0  0  0  0
    6.7649   -0.5510    4.2089 C   0  0  0  0  0  0  0  0  0  0  0  0
    5.7859    0.4401    4.2742 C   0  0  0  0  0  0  0  0  0  0  0  0
    4.5184    0.1653    4.5807 N   0  0  0  0  0  0  0  0  0  0  0  0
   -1.3515   -0.0028   -0.0495 H   0  0  0  0  0  0  0  0  0  0  0  0
    2.6786   -2.1444    2.0651 H   0  0  0  0  0  0  0  0  0  0  0  0
    5.0121   -2.1521    1.1691 H   0  0  0  0  0  0  0  0  0  0  0  0
    6.1182    0.0002    0.5722 H   0  0  0  0  0  0  0  0  0  0  0  0
    4.8933    2.1526    0.8600 H   0  0  0  0  0  0  0  0  0  0  0  0
    2.5628    2.1429    1.7719 H   0  0  0  0  0  0  0  0  0  0  0  0
    2.4212    0.7739    4.9293 H   0  0  0  0  0  0  0  0  0  0  0  0
    1.0254    0.1463    5.8764 H   0  0  0  0  0  0  0  0  0  0  0  0
    7.0408   -2.6954    4.4563 H   0  0  0  0  0  0  0  0  0  0  0  0
    7.8019   -0.3225    3.9603 H   0  0  0  0  0  0  0  0  0  0  0  0
    6.0251    1.4899    4.0722 H   0  0  0  0  0  0  0  0  0  0  0  0
  1  2  1  0  0  0  0
  2  6  1  0  0  0  0
  2  3  2  0  0  0  0
  3  4  1  0  0  0  0
  5  4  2  0  0  0  0
  5 13  1  0  0  0  0
  6  5  1  0  0  0  0
  7  6  1  0  0  0  0
  8  7  1  0  0  0  0
  8 22  1  0  0  0  0
  9  8  2  0  0  0  0
 10 11  2  0  0  0  0
 10  9  1  0  0  0  0
 11 12  1  0  0  0  0
 12 26  1  0  0  0  0
 12  7  2  0  0  0  0
 13 14  1  0  0  0  0
 13 28  1  0  0  0  0
 15 14  1  0  0  0  0
 16 15  2  0  0  0  0
 17 16  2  0  0  0  0
 18 19  1  0  0  0  0
 18 17  1  0  0  0  0
 19 20  2  0  0  0  0
 20 15  2  0  0  0  0
 21  1  1  0  0  0  0
 23  9  1  0  0  0  0
 24 10  1  0  0  0  0
 25 11  1  0  0  0  0
 27 13  1  0  0  0  0
 29 17  1  0  0  0  0
 30 18  1  0  0  0  0
 31 19  1  0  0  0  0
M  RAD  1  18   2
M  END
