565726.xyz
 OpenBabel08132112133D
Clc1cccc(c1)/C=N/n1c(S)nnc1c1ccncc1
 31 33  0  0  0  0  0  0  0  0999 V2000
   -7.5184    2.0417    1.9316 Cl  0  0  0  0  0  0  0  0  0  0  0  0
   -6.4602    0.9662    1.0564 C   0  0  0  0  0  0  0  0  0  0  0  0
   -6.9557    0.2684   -0.0539 C   0  0  0  0  0  0  0  0  0  0  0  0
   -6.1069   -0.5883   -0.7557 C   0  0  0  0  0  0  0  0  0  0  0  0
   -4.7798   -0.7509   -0.3550 C   0  0  0  0  0  0  0  0  0  0  0  0
   -4.2906   -0.0525    0.7610 C   0  0  0  0  0  0  0  0  0  0  0  0
   -5.1396    0.8186    1.4681 C   0  0  0  0  0  0  0  0  0  0  0  0
   -2.9004   -0.2516    1.1739 C   0  0  0  0  0  0  0  0  0  0  0  0
   -2.4392    0.3033    2.2339 N   0  0  0  0  0  0  0  0  0  0  0  0
   -1.1274    0.1191    2.5592 N   0  0  0  0  0  0  0  0  0  0  0  0
    0.0000   -0.0000    1.7586 C   0  0  0  0  0  0  0  0  0  0  0  0
    0.0000    0.0000    0.0000 S   0  0  0  0  0  0  0  0  0  0  0  0
    1.0761    0.0000    2.5076 N   0  0  0  0  0  0  0  0  0  0  0  0
    0.6854    0.1166    3.8090 N   0  0  0  0  0  0  0  0  0  0  0  0
   -0.6255    0.2042    3.8571 C   0  0  0  0  0  0  0  0  0  0  0  0
   -1.3930    0.3303    5.1000 C   0  0  0  0  0  0  0  0  0  0  0  0
   -2.7866    0.1947    5.2022 C   0  0  0  0  0  0  0  0  0  0  0  0
   -3.3826    0.3301    6.4595 C   0  0  0  0  0  0  0  0  0  0  0  0
   -2.7086    0.5786    7.5827 N   0  0  0  0  0  0  0  0  0  0  0  0
   -1.3801    0.7013    7.4835 C   0  0  0  0  0  0  0  0  0  0  0  0
   -0.6795    0.5890    6.2851 C   0  0  0  0  0  0  0  0  0  0  0  0
   -7.9944    0.4056   -0.3573 H   0  0  0  0  0  0  0  0  0  0  0  0
   -6.4872   -1.1326   -1.6226 H   0  0  0  0  0  0  0  0  0  0  0  0
   -4.1178   -1.4232   -0.9058 H   0  0  0  0  0  0  0  0  0  0  0  0
   -4.7573    1.3718    2.3256 H   0  0  0  0  0  0  0  0  0  0  0  0
   -2.2936   -0.9218    0.5462 H   0  0  0  0  0  0  0  0  0  0  0  0
    1.3273    0.2629   -0.0405 H   0  0  0  0  0  0  0  0  0  0  0  0
   -3.3988   -0.0107    4.3274 H   0  0  0  0  0  0  0  0  0  0  0  0
   -4.4702    0.2282    6.5531 H   0  0  0  0  0  0  0  0  0  0  0  0
   -0.8368    0.9029    8.4138 H   0  0  0  0  0  0  0  0  0  0  0  0
    0.4049    0.6954    6.2486 H   0  0  0  0  0  0  0  0  0  0  0  0
  2  7  1  0  0  0  0
  2  1  1  0  0  0  0
  3  2  2  0  0  0  0
  4  5  2  0  0  0  0
  4  3  1  0  0  0  0
  5  6  1  0  0  0  0
  6  8  1  0  0  0  0
  6  7  2  0  0  0  0
  7 25  1  0  0  0  0
  8  9  2  0  0  0  0
  9 10  1  0  0  0  0
 10 15  1  0  0  0  0
 11 13  2  0  0  0  0
 11 10  1  0  0  0  0
 12 11  1  0  0  0  0
 13 14  1  0  0  0  0
 14 15  2  0  0  0  0
 15 16  1  0  0  0  0
 16 17  1  0  0  0  0
 16 21  2  0  0  0  0
 17 18  1  0  0  0  0
 18 29  1  0  0  0  0
 18 19  2  0  0  0  0
 20 19  2  0  0  0  0
 20 30  1  0  0  0  0
 21 20  1  0  0  0  0
 22  3  1  0  0  0  0
 23  4  1  0  0  0  0
 24  5  1  0  0  0  0
 26  8  1  0  0  0  0
 27 12  1  0  0  0  0
 28 17  1  0  0  0  0
 31 21  1  0  0  0  0
M  RAD  1  17   2
M  END
