56749691.xyz
 OpenBabel08132112133D
Sc1cccc(c1Br)C(F)(F)F
 16 16  0  0  0  0  0  0  0  0999 V2000
    0.0000    0.0000    0.0000 S   0  0  0  0  0  0  0  0  0  0  0  0
    0.0000    0.0000    1.7702 C   0  0  0  0  0  0  0  0  0  0  0  0
   -1.2713   -0.0001    2.3765 C   0  0  0  0  0  0  0  0  0  0  0  0
   -1.4097   -0.0001    3.7573 C   0  0  0  0  0  0  0  0  0  0  0  0
   -0.2774   -0.0001    4.5728 C   0  0  0  0  0  0  0  0  0  0  0  0
    0.9983   -0.0000    4.0044 C   0  0  0  0  0  0  0  0  0  0  0  0
    1.1390   -0.0000    2.6017 C   0  0  0  0  0  0  0  0  0  0  0  0
    2.8803    0.0001    1.8171 Br  0  0  0  0  0  0  0  0  0  0  0  0
    2.1970    0.0000    4.9358 C   0  0  0  0  0  0  0  0  0  0  0  0
    2.9698   -1.0832    4.7585 F   0  0  0  0  0  0  0  0  0  0  0  0
    1.8136   -0.0001    6.2245 F   0  0  0  0  0  0  0  0  0  0  0  0
    2.9695    1.0835    4.7587 F   0  0  0  0  0  0  0  0  0  0  0  0
    1.3415    0.0007   -0.1595 H   0  0  0  0  0  0  0  0  0  0  0  0
   -2.1573   -0.0001    1.7373 H   0  0  0  0  0  0  0  0  0  0  0  0
   -2.4056   -0.0002    4.2045 H   0  0  0  0  0  0  0  0  0  0  0  0
   -0.3757   -0.0001    5.6573 H   0  0  0  0  0  0  0  0  0  0  0  0
  1  2  1  0  0  0  0
  2  3  2  0  0  0  0
  2  7  1  0  0  0  0
  3  4  1  0  0  0  0
  4 15  1  0  0  0  0
  4  5  2  0  0  0  0
  5 16  1  0  0  0  0
  6  5  1  0  0  0  0
  6  9  1  0  0  0  0
  7  6  2  0  0  0  0
  8  7  1  0  0  0  0
  9 11  1  0  0  0  0
 10  9  1  0  0  0  0
 12  9  1  0  0  0  0
 13  1  1  0  0  0  0
 14  3  1  0  0  0  0
M  END
