56973232.xyz
 OpenBabel08132112133D
Cc1nnc(c(c1)S)N
 16 16  0  0  0  0  0  0  0  0999 V2000
   -2.1637    0.1031    4.8931 C   0  0  0  0  0  0  0  0  0  0  0  0
   -0.9761    0.0663    3.9710 C   0  0  0  0  0  0  0  0  0  0  0  0
    0.2313    0.0766    4.5340 N   0  0  0  0  0  0  0  0  0  0  0  0
    1.3210    0.0323    3.7865 N   0  0  0  0  0  0  0  0  0  0  0  0
    1.2521    0.0000    2.4550 C   0  0  0  0  0  0  0  0  0  0  0  0
   -0.0000    0.0000    1.7748 C   0  0  0  0  0  0  0  0  0  0  0  0
   -1.1303    0.0277    2.5698 C   0  0  0  0  0  0  0  0  0  0  0  0
    0.0000    0.0000    0.0000 S   0  0  0  0  0  0  0  0  0  0  0  0
    2.4441    0.0088    1.7682 N   0  0  0  0  0  0  0  0  0  0  0  0
   -2.8012   -0.7874    4.7646 H   0  0  0  0  0  0  0  0  0  0  0  0
   -2.7928    0.9886    4.7037 H   0  0  0  0  0  0  0  0  0  0  0  0
   -1.8092    0.1370    5.9315 H   0  0  0  0  0  0  0  0  0  0  0  0
   -2.1295    0.0326    2.1269 H   0  0  0  0  0  0  0  0  0  0  0  0
   -1.2901   -0.3755   -0.1498 H   0  0  0  0  0  0  0  0  0  0  0  0
    3.2517   -0.1459    2.3640 H   0  0  0  0  0  0  0  0  0  0  0  0
    2.4692   -0.4791    0.8785 H   0  0  0  0  0  0  0  0  0  0  0  0
  1 12  1  0  0  0  0
  2  3  2  0  0  0  0
  2  1  1  0  0  0  0
  4  3  1  0  0  0  0
  5  4  2  0  0  0  0
  6  5  1  0  0  0  0
  6  7  2  0  0  0  0
  7  2  1  0  0  0  0
  8  6  1  0  0  0  0
  9 15  1  0  0  0  0
  9  5  1  0  0  0  0
 10  1  1  0  0  0  0
 11  1  1  0  0  0  0
 13  7  1  0  0  0  0
 14  8  1  0  0  0  0
 16  9  1  0  0  0  0
M  END
