579092.xyz
 OpenBabel08132112133D
CC(Oc1cccc(c1)c1nnc(n1/N=C/c1ccc(cc1)C)S)C
 45 47  0  0  0  0  0  0  0  0999 V2000
   -0.8100   -2.0596    9.9916 C   0  0  0  0  0  0  0  0  0  0  0  0
   -0.6041   -1.2413    8.7262 C   0  0  0  0  0  0  0  0  0  0  0  0
    0.8003   -0.9644    8.6625 O   0  0  0  0  0  0  0  0  0  0  0  0
    1.3867   -0.6053    7.4952 C   0  0  0  0  0  0  0  0  0  0  0  0
    2.7551   -0.2826    7.5700 C   0  0  0  0  0  0  0  0  0  0  0  0
    3.4438    0.0860    6.4203 C   0  0  0  0  0  0  0  0  0  0  0  0
    2.8015    0.1425    5.1784 C   0  0  0  0  0  0  0  0  0  0  0  0
    1.4392   -0.1826    5.0969 C   0  0  0  0  0  0  0  0  0  0  0  0
    0.7352   -0.5541    6.2607 C   0  0  0  0  0  0  0  0  0  0  0  0
    0.6543   -0.1365    3.8570 C   0  0  0  0  0  0  0  0  0  0  0  0
   -0.6602   -0.1876    3.8134 N   0  0  0  0  0  0  0  0  0  0  0  0
   -1.0672   -0.1135    2.5116 N   0  0  0  0  0  0  0  0  0  0  0  0
    0.0000   -0.0000    1.7609 C   0  0  0  0  0  0  0  0  0  0  0  0
    1.1368   -0.0000    2.5573 N   0  0  0  0  0  0  0  0  0  0  0  0
    2.4583   -0.0569    2.2149 N   0  0  0  0  0  0  0  0  0  0  0  0
    2.8486    0.5804    1.1716 C   0  0  0  0  0  0  0  0  0  0  0  0
    4.2383    0.5277    0.7253 C   0  0  0  0  0  0  0  0  0  0  0  0
    4.6376    1.2970   -0.3784 C   0  0  0  0  0  0  0  0  0  0  0  0
    5.9622    1.2759   -0.8159 C   0  0  0  0  0  0  0  0  0  0  0  0
    6.9224    0.4878   -0.1672 C   0  0  0  0  0  0  0  0  0  0  0  0
    6.5132   -0.2848    0.9377 C   0  0  0  0  0  0  0  0  0  0  0  0
    5.1970   -0.2721    1.3787 C   0  0  0  0  0  0  0  0  0  0  0  0
    8.3546    0.4540   -0.6310 C   0  0  0  0  0  0  0  0  0  0  0  0
    0.0000    0.0000    0.0000 S   0  0  0  0  0  0  0  0  0  0  0  0
   -1.4101    0.0540    8.7233 C   0  0  0  0  0  0  0  0  0  0  0  0
   -1.8700   -2.3332   10.1046 H   0  0  0  0  0  0  0  0  0  0  0  0
   -0.2096   -2.9806    9.9578 H   0  0  0  0  0  0  0  0  0  0  0  0
   -0.5021   -1.4788   10.8751 H   0  0  0  0  0  0  0  0  0  0  0  0
   -0.8857   -1.8577    7.8538 H   0  0  0  0  0  0  0  0  0  0  0  0
    3.2459   -0.3309    8.5436 H   0  0  0  0  0  0  0  0  0  0  0  0
    4.5044    0.3399    6.4880 H   0  0  0  0  0  0  0  0  0  0  0  0
    3.3527    0.4390    4.2899 H   0  0  0  0  0  0  0  0  0  0  0  0
   -0.3218   -0.7865    6.1540 H   0  0  0  0  0  0  0  0  0  0  0  0
    2.1673    1.2158    0.5842 H   0  0  0  0  0  0  0  0  0  0  0  0
    3.9029    1.9186   -0.8972 H   0  0  0  0  0  0  0  0  0  0  0  0
    6.2561    1.8819   -1.6764 H   0  0  0  0  0  0  0  0  0  0  0  0
    7.2476   -0.9092    1.4538 H   0  0  0  0  0  0  0  0  0  0  0  0
    4.8842   -0.8792    2.2299 H   0  0  0  0  0  0  0  0  0  0  0  0
    8.6518   -0.5669   -0.9232 H   0  0  0  0  0  0  0  0  0  0  0  0
    8.5181    1.1151   -1.4939 H   0  0  0  0  0  0  0  0  0  0  0  0
    9.0390    0.7685    0.1742 H   0  0  0  0  0  0  0  0  0  0  0  0
   -1.2844   -0.4248   -0.0405 H   0  0  0  0  0  0  0  0  0  0  0  0
   -1.1378    0.6677    9.5963 H   0  0  0  0  0  0  0  0  0  0  0  0
   -2.4878   -0.1658    8.7725 H   0  0  0  0  0  0  0  0  0  0  0  0
   -1.2258    0.6450    7.8148 H   0  0  0  0  0  0  0  0  0  0  0  0
  1 26  1  0  0  0  0
  1 28  1  0  0  0  0
  2  1  1  0  0  0  0
  3  2  1  0  0  0  0
  4  5  1  0  0  0  0
  4  3  1  0  0  0  0
  5 30  1  0  0  0  0
  6 31  1  0  0  0  0
  6  5  2  0  0  0  0
  7  6  1  0  0  0  0
  8  7  2  0  0  0  0
  8  9  1  0  0  0  0
  9  4  2  0  0  0  0
 10  8  1  0  0  0  0
 11 10  2  0  0  0  0
 12 11  1  0  0  0  0
 13 12  2  0  0  0  0
 13 14  1  0  0  0  0
 14 10  1  0  0  0  0
 15 14  1  0  0  0  0
 16 15  2  0  0  0  0
 17 16  1  0  0  0  0
 17 22  2  0  0  0  0
 18 17  1  0  0  0  0
 19 18  2  0  0  0  0
 19 20  1  0  0  0  0
 20 21  2  0  0  0  0
 21 22  1  0  0  0  0
 21 37  1  0  0  0  0
 22 38  1  0  0  0  0
 23 20  1  0  0  0  0
 23 41  1  0  0  0  0
 24 13  1  0  0  0  0
 25  2  1  0  0  0  0
 25 44  1  0  0  0  0
 25 43  1  0  0  0  0
 27  1  1  0  0  0  0
 29  2  1  0  0  0  0
 32  7  1  0  0  0  0
 33  9  1  0  0  0  0
 34 16  1  0  0  0  0
 35 18  1  0  0  0  0
 36 19  1  0  0  0  0
 39 23  1  0  0  0  0
 40 23  1  0  0  0  0
 42 24  1  0  0  0  0
 45 25  1  0  0  0  0
M  END
