579472.xyz
 OpenBabel08132112133D
COc1cccc(c1)/C=N/n1c(S)nnc1c1ccc(cc1)F
 36 38  0  0  0  0  0  0  0  0999 V2000
   -7.7530    1.2590   -2.3683 C   0  0  0  0  0  0  0  0  0  0  0  0
   -6.4346    1.3543   -1.8766 O   0  0  0  0  0  0  0  0  0  0  0  0
   -6.0813    0.6215   -0.7950 C   0  0  0  0  0  0  0  0  0  0  0  0
   -6.9403   -0.2465   -0.1057 C   0  0  0  0  0  0  0  0  0  0  0  0
   -6.4622   -0.9594    1.0038 C   0  0  0  0  0  0  0  0  0  0  0  0
   -5.1503   -0.8227    1.4378 C   0  0  0  0  0  0  0  0  0  0  0  0
   -4.2868    0.0550    0.7499 C   0  0  0  0  0  0  0  0  0  0  0  0
   -4.7540    0.7657   -0.3606 C   0  0  0  0  0  0  0  0  0  0  0  0
   -2.8995    0.2534    1.1720 C   0  0  0  0  0  0  0  0  0  0  0  0
   -2.4407   -0.3084    2.2299 N   0  0  0  0  0  0  0  0  0  0  0  0
   -1.1296   -0.1207    2.5599 N   0  0  0  0  0  0  0  0  0  0  0  0
   -0.0000   -0.0000    1.7603 C   0  0  0  0  0  0  0  0  0  0  0  0
    0.0000    0.0000    0.0000 S   0  0  0  0  0  0  0  0  0  0  0  0
    1.0739    0.0000    2.5093 N   0  0  0  0  0  0  0  0  0  0  0  0
    0.6806   -0.1161    3.8127 N   0  0  0  0  0  0  0  0  0  0  0  0
   -0.6308   -0.2050    3.8587 C   0  0  0  0  0  0  0  0  0  0  0  0
   -1.4022   -0.3383    5.0991 C   0  0  0  0  0  0  0  0  0  0  0  0
   -2.7966   -0.1760    5.1873 C   0  0  0  0  0  0  0  0  0  0  0  0
   -3.4506   -0.3056    6.4134 C   0  0  0  0  0  0  0  0  0  0  0  0
   -2.7077   -0.5950    7.5533 C   0  0  0  0  0  0  0  0  0  0  0  0
   -1.3234   -0.7552    7.4993 C   0  0  0  0  0  0  0  0  0  0  0  0
   -0.6777   -0.6261    6.2745 C   0  0  0  0  0  0  0  0  0  0  0  0
   -3.3352   -0.7206    8.7308 F   0  0  0  0  0  0  0  0  0  0  0  0
   -7.8128    1.9300   -3.2348 H   0  0  0  0  0  0  0  0  0  0  0  0
   -8.4945    1.5785   -1.6144 H   0  0  0  0  0  0  0  0  0  0  0  0
   -7.9951    0.2310   -2.6923 H   0  0  0  0  0  0  0  0  0  0  0  0
   -7.9744   -0.3790   -0.4219 H   0  0  0  0  0  0  0  0  0  0  0  0
   -7.1398   -1.6367    1.5289 H   0  0  0  0  0  0  0  0  0  0  0  0
   -4.7718   -1.3836    2.2925 H   0  0  0  0  0  0  0  0  0  0  0  0
   -4.1015    1.4470   -0.9106 H   0  0  0  0  0  0  0  0  0  0  0  0
   -2.2895    0.9293    0.5533 H   0  0  0  0  0  0  0  0  0  0  0  0
    1.3258   -0.2700   -0.0395 H   0  0  0  0  0  0  0  0  0  0  0  0
   -3.3760    0.0513    4.2956 H   0  0  0  0  0  0  0  0  0  0  0  0
   -4.5315   -0.1802    6.4956 H   0  0  0  0  0  0  0  0  0  0  0  0
   -0.7730   -0.9802    8.4144 H   0  0  0  0  0  0  0  0  0  0  0  0
    0.4040   -0.7435    6.2015 H   0  0  0  0  0  0  0  0  0  0  0  0
  1  2  1  0  0  0  0
  1 25  1  0  0  0  0
  2  3  1  0  0  0  0
  3  8  2  0  0  0  0
  3  4  1  0  0  0  0
  4  5  2  0  0  0  0
  5  6  1  0  0  0  0
  5 28  1  0  0  0  0
  6 29  1  0  0  0  0
  7  9  1  0  0  0  0
  7  6  2  0  0  0  0
  8  7  1  0  0  0  0
  9 10  2  0  0  0  0
 10 11  1  0  0  0  0
 11 16  1  0  0  0  0
 12 14  2  0  0  0  0
 12 11  1  0  0  0  0
 13 12  1  0  0  0  0
 14 15  1  0  0  0  0
 15 16  2  0  0  0  0
 16 17  1  0  0  0  0
 17 18  2  0  0  0  0
 17 22  1  0  0  0  0
 18 19  1  0  0  0  0
 19 34  1  0  0  0  0
 19 20  2  0  0  0  0
 20 23  1  0  0  0  0
 21 20  1  0  0  0  0
 21 35  1  0  0  0  0
 22 21  2  0  0  0  0
 24  1  1  0  0  0  0
 26  1  1  0  0  0  0
 27  4  1  0  0  0  0
 30  8  1  0  0  0  0
 31  9  1  0  0  0  0
 32 13  1  0  0  0  0
 33 18  1  0  0  0  0
 36 22  1  0  0  0  0
M  END
