5848811.xyz
 OpenBabel08132112133D
Cn1c(S)nnc1c1csc(n1)c1cccs1
 25 27  0  0  0  0  0  0  0  0999 V2000
    2.5079    0.0887    1.9825 C   0  0  0  0  0  0  0  0  0  0  0  0
    1.1562   -0.0000    2.4975 N   0  0  0  0  0  0  0  0  0  0  0  0
   -0.0000    0.0000    1.7600 C   0  0  0  0  0  0  0  0  0  0  0  0
    0.0000    0.0000    0.0000 S   0  0  0  0  0  0  0  0  0  0  0  0
   -1.0550    0.0058    2.5418 N   0  0  0  0  0  0  0  0  0  0  0  0
   -0.6064    0.0111    3.8328 N   0  0  0  0  0  0  0  0  0  0  0  0
    0.7086    0.0013    3.8117 C   0  0  0  0  0  0  0  0  0  0  0  0
    1.5746   -0.0281    4.9911 C   0  0  0  0  0  0  0  0  0  0  0  0
    2.7997   -0.6595    5.0856 C   0  0  0  0  0  0  0  0  0  0  0  0
    3.4539   -0.4741    6.6741 S   0  0  0  0  0  0  0  0  0  0  0  0
    2.0150    0.4518    7.1154 C   0  0  0  0  0  0  0  0  0  0  0  0
    1.1568    0.5888    6.1433 N   0  0  0  0  0  0  0  0  0  0  0  0
    1.8431    1.0048    8.4422 C   0  0  0  0  0  0  0  0  0  0  0  0
    2.6797    0.9326    9.5411 C   0  0  0  0  0  0  0  0  0  0  0  0
    2.1557    1.6085   10.6767 C   0  0  0  0  0  0  0  0  0  0  0  0
    0.9312    2.1830   10.4243 C   0  0  0  0  0  0  0  0  0  0  0  0
    0.3982    1.9109    8.8058 S   0  0  0  0  0  0  0  0  0  0  0  0
    3.1411    0.6206    2.7040 H   0  0  0  0  0  0  0  0  0  0  0  0
    2.9378   -0.9079    1.7922 H   0  0  0  0  0  0  0  0  0  0  0  0
    2.4989    0.6536    1.0394 H   0  0  0  0  0  0  0  0  0  0  0  0
   -1.3395    0.1741   -0.0532 H   0  0  0  0  0  0  0  0  0  0  0  0
    3.3182   -1.2542    4.3384 H   0  0  0  0  0  0  0  0  0  0  0  0
    3.6374    0.4098    9.5286 H   0  0  0  0  0  0  0  0  0  0  0  0
    2.6628    1.6667   11.6402 H   0  0  0  0  0  0  0  0  0  0  0  0
    0.3089    2.7550   11.1111 H   0  0  0  0  0  0  0  0  0  0  0  0
  1  2  1  0  0  0  0
  1 18  1  0  0  0  0
  2  7  1  0  0  0  0
  3  2  1  0  0  0  0
  3  5  2  0  0  0  0
  4  3  1  0  0  0  0
  5  6  1  0  0  0  0
  7  6  2  0  0  0  0
  7  8  1  0  0  0  0
  8  9  1  0  0  0  0
  8 12  2  0  0  0  0
  9 10  1  0  0  0  0
 10 11  1  0  0  0  0
 11 13  1  0  0  0  0
 12 11  2  0  0  0  0
 13 17  1  0  0  0  0
 13 14  2  0  0  0  0
 14 15  1  0  0  0  0
 15 24  1  0  0  0  0
 16 15  2  0  0  0  0
 16 25  1  0  0  0  0
 17 16  1  0  0  0  0
 19  1  1  0  0  0  0
 20  1  1  0  0  0  0
 21  4  1  0  0  0  0
 22  9  1  0  0  0  0
 23 14  1  0  0  0  0
M  RAD  1   9   2
M  END
