607222.xyz
 OpenBabel08132112133D
Sc1nnc(n1N=Cc1ccc(cc1)[N+](=O)[O-])c1ccc(cc1)C(C)(C)C
 46 48  0  0  0  0  0  0  0  0999 V2000
    0.0000    0.0000    0.0000 S   0  0  0  0  0  0  0  0  0  0  0  0
   -0.0000    0.0000    1.7522 C   0  0  0  0  0  0  0  0  0  0  0  0
   -1.0618    0.0543    2.5113 N   0  0  0  0  0  0  0  0  0  0  0  0
   -0.6396    0.0515    3.8198 N   0  0  0  0  0  0  0  0  0  0  0  0
    0.6697    0.0211    3.8524 C   0  0  0  0  0  0  0  0  0  0  0  0
    1.1461    0.0000    2.5348 N   0  0  0  0  0  0  0  0  0  0  0  0
    2.3979    0.0451    1.9942 N   0  0  0  0  0  0  0  0  0  0  0  0
    3.3185    0.6714    2.6319 C   0  0  0  0  0  0  0  0  0  0  0  0
    4.6929    0.7179    2.1310 C   0  0  0  0  0  0  0  0  0  0  0  0
    5.0809    0.0374    0.9600 C   0  0  0  0  0  0  0  0  0  0  0  0
    6.3934    0.1066    0.5102 C   0  0  0  0  0  0  0  0  0  0  0  0
    7.3176    0.8555    1.2438 C   0  0  0  0  0  0  0  0  0  0  0  0
    6.9671    1.5334    2.4097 C   0  0  0  0  0  0  0  0  0  0  0  0
    5.6479    1.4589    2.8501 C   0  0  0  0  0  0  0  0  0  0  0  0
    8.7162    0.9268    0.7700 N   0  0  0  0  0  0  0  0  0  0  0  0
    9.5003    1.5851    1.4328 O   0  0  0  0  0  0  0  0  0  0  0  0
    8.9932    0.3225   -0.2524 O   0  0  0  0  0  0  0  0  0  0  0  0
    1.4772   -0.1016    5.0728 C   0  0  0  0  0  0  0  0  0  0  0  0
    1.1070    0.6251    6.2164 C   0  0  0  0  0  0  0  0  0  0  0  0
    1.8369    0.5029    7.3949 C   0  0  0  0  0  0  0  0  0  0  0  0
    2.9585   -0.3415    7.4891 C   0  0  0  0  0  0  0  0  0  0  0  0
    3.3060   -1.0759    6.3450 C   0  0  0  0  0  0  0  0  0  0  0  0
    2.5783   -0.9662    5.1591 C   0  0  0  0  0  0  0  0  0  0  0  0
    3.7386   -0.4339    8.8082 C   0  0  0  0  0  0  0  0  0  0  0  0
    4.2806    0.9639    9.1756 C   0  0  0  0  0  0  0  0  0  0  0  0
    4.9265   -1.4034    8.7129 C   0  0  0  0  0  0  0  0  0  0  0  0
    2.7934   -0.9305    9.9228 C   0  0  0  0  0  0  0  0  0  0  0  0
    1.3418   -0.1628   -0.0790 H   0  0  0  0  0  0  0  0  0  0  0  0
    3.1177    1.1934    3.5764 H   0  0  0  0  0  0  0  0  0  0  0  0
    4.3382   -0.5477    0.4167 H   0  0  0  0  0  0  0  0  0  0  0  0
    6.7228   -0.4075   -0.3918 H   0  0  0  0  0  0  0  0  0  0  0  0
    7.7260    2.1007    2.9467 H   0  0  0  0  0  0  0  0  0  0  0  0
    5.3506    1.9791    3.7636 H   0  0  0  0  0  0  0  0  0  0  0  0
    0.2372    1.2820    6.1653 H   0  0  0  0  0  0  0  0  0  0  0  0
    1.5222    1.0847    8.2634 H   0  0  0  0  0  0  0  0  0  0  0  0
    4.1526   -1.7611    6.3680 H   0  0  0  0  0  0  0  0  0  0  0  0
    2.8659   -1.5728    4.2981 H   0  0  0  0  0  0  0  0  0  0  0  0
    4.8419    0.9204   10.1228 H   0  0  0  0  0  0  0  0  0  0  0  0
    4.9585    1.3401    8.3934 H   0  0  0  0  0  0  0  0  0  0  0  0
    3.4702    1.6973    9.3003 H   0  0  0  0  0  0  0  0  0  0  0  0
    5.6506   -1.0896    7.9451 H   0  0  0  0  0  0  0  0  0  0  0  0
    4.6004   -2.4287    8.4803 H   0  0  0  0  0  0  0  0  0  0  0  0
    5.4578   -1.4353    9.6763 H   0  0  0  0  0  0  0  0  0  0  0  0
    3.3351   -1.0035   10.8795 H   0  0  0  0  0  0  0  0  0  0  0  0
    2.3897   -1.9256    9.6798 H   0  0  0  0  0  0  0  0  0  0  0  0
    1.9421   -0.2497   10.0710 H   0  0  0  0  0  0  0  0  0  0  0  0
  1  2  1  0  0  0  0
  2  3  2  0  0  0  0
  2  6  1  0  0  0  0
  3  4  1  0  0  0  0
  4  5  2  0  0  0  0
  5 18  1  0  0  0  0
  6  5  1  0  0  0  0
  7  6  1  0  0  0  0
  7  8  2  0  0  0  0
  8 29  1  0  0  0  0
  9  8  1  0  0  0  0
  9 14  2  0  0  0  0
 10  9  1  0  0  0  0
 11 10  2  0  0  0  0
 11 12  1  0  0  0  0
 12 13  2  0  0  0  0
 13 14  1  0  0  0  0
 13 32  1  0  0  0  0
 14 33  1  0  0  0  0
 15 12  1  0  0  0  0
 15 16  2  0  0  0  0
 17 15  2  0  0  0  0
 18 23  2  0  0  0  0
 18 19  1  0  0  0  0
 19 20  2  0  0  0  0
 20 21  1  0  0  0  0
 20 35  1  0  0  0  0
 21 24  1  0  0  0  0
 22 36  1  0  0  0  0
 22 21  2  0  0  0  0
 23 22  1  0  0  0  0
 24 25  1  0  0  0  0
 24 27  1  0  0  0  0
 25 40  1  0  0  0  0
 25 38  1  0  0  0  0
 26 24  1  0  0  0  0
 26 43  1  0  0  0  0
 27 46  1  0  0  0  0
 27 44  1  0  0  0  0
 28  1  1  0  0  0  0
 30 10  1  0  0  0  0
 31 11  1  0  0  0  0
 34 19  1  0  0  0  0
 37 23  1  0  0  0  0
 39 25  1  0  0  0  0
 41 26  1  0  0  0  0
 42 26  1  0  0  0  0
 45 27  1  0  0  0  0
M  END
