6651641.xyz
 OpenBabel08132112143D
Sc1nc(nc2c1cccc2)C1CCCCC1
 33 35  0  0  1  0  0  0  0  0999 V2000
    0.0000    0.0000    0.0000 S   0  0  0  0  0  0  0  0  0  0  0  0
    0.0000    0.0000    1.7736 C   0  0  0  0  0  0  0  0  0  0  0  0
    1.1489    0.0000    2.4031 N   0  0  0  0  0  0  0  0  0  0  0  0
    1.1459    0.0075    3.7694 C   0  0  0  0  0  0  0  0  0  0  0  0
    0.0697    0.0090    4.5234 N   0  0  0  0  0  0  0  0  0  0  0  0
   -1.1411    0.0026    3.8980 C   0  0  0  0  0  0  0  0  0  0  0  0
   -1.2515   -0.0010    2.4745 C   0  0  2  0  0  0  0  0  0  0  0  0
   -2.5299   -0.0062    1.8646 C   0  0  0  0  0  0  0  0  0  0  0  0
   -3.6684   -0.0083    2.6456 C   0  0  0  0  0  0  0  0  0  0  0  0
   -3.5642   -0.0052    4.0584 C   0  0  0  0  0  0  0  0  0  0  0  0
   -2.3296    0.0003    4.6746 C   0  0  0  0  0  0  0  0  0  0  0  0
    2.4996    0.0045    4.4343 C   0  0  0  0  0  0  0  0  0  0  0  0
    3.3727    1.2157    3.9939 C   0  0  0  0  0  0  0  0  0  0  0  0
    4.3692    0.8404    2.8955 C   0  0  0  0  0  0  0  0  0  0  0  0
    5.3705   -0.2249    3.3860 C   0  0  0  0  0  0  0  0  0  0  0  0
    4.7337   -1.1937    4.4067 C   0  0  0  0  0  0  0  0  0  0  0  0
    3.2293   -1.3359    4.1704 C   0  0  0  0  0  0  0  0  0  0  0  0
    1.3489   -0.0010   -0.0791 H   0  0  0  0  0  0  0  0  0  0  0  0
   -2.6099   -0.0089    0.7753 H   0  0  0  0  0  0  0  0  0  0  0  0
   -4.6540   -0.0123    2.1751 H   0  0  0  0  0  0  0  0  0  0  0  0
   -4.4743   -0.0070    4.6632 H   0  0  0  0  0  0  0  0  0  0  0  0
   -2.2223    0.0032    5.7604 H   0  0  0  0  0  0  0  0  0  0  0  0
    2.2979    0.0881    5.5114 H   0  0  0  0  0  0  0  0  0  0  0  0
    3.9248    1.5886    4.8732 H   0  0  0  0  0  0  0  0  0  0  0  0
    2.7261    2.0439    3.6641 H   0  0  0  0  0  0  0  0  0  0  0  0
    3.7994    0.4594    2.0344 H   0  0  0  0  0  0  0  0  0  0  0  0
    4.9077    1.7353    2.5439 H   0  0  0  0  0  0  0  0  0  0  0  0
    6.2477    0.2627    3.8435 H   0  0  0  0  0  0  0  0  0  0  0  0
    5.7524   -0.7905    2.5197 H   0  0  0  0  0  0  0  0  0  0  0  0
    4.8949   -0.8201    5.4329 H   0  0  0  0  0  0  0  0  0  0  0  0
    5.2269   -2.1778    4.3607 H   0  0  0  0  0  0  0  0  0  0  0  0
    2.7953   -2.1198    4.8110 H   0  0  0  0  0  0  0  0  0  0  0  0
    3.0500   -1.6455    3.1273 H   0  0  0  0  0  0  0  0  0  0  0  0
  1  2  1  0  0  0  0
  2  3  2  0  0  0  0
  3  4  2  0  0  0  0
  4 12  1  0  0  0  0
  4  5  2  0  0  0  0
  6  5  2  0  0  0  0
  6 11  1  0  0  0  0
  7  2  1  1  0  0  0
  7  6  1  0  0  0  0
  8  7  1  0  0  0  0
  8  9  2  0  0  0  0
  9 10  1  0  0  0  0
 10 21  1  0  0  0  0
 10 11  2  0  0  0  0
 11 22  1  0  0  0  0
 12 23  1  0  0  0  0
 13 12  1  0  0  0  0
 13 24  1  0  0  0  0
 14 15  1  0  0  0  0
 14 13  1  0  0  0  0
 15 28  1  0  0  0  0
 15 16  1  0  0  0  0
 16 30  1  0  0  0  0
 17 16  1  0  0  0  0
 17 12  1  0  0  0  0
 17 32  1  0  0  0  0
 18  1  1  0  0  0  0
 19  8  1  0  0  0  0
 20  9  1  0  0  0  0
 25 13  1  0  0  0  0
 26 14  1  0  0  0  0
 27 14  1  0  0  0  0
 29 15  1  0  0  0  0
 31 16  1  0  0  0  0
 33 17  1  0  0  0  0
M  RAD  1   7   2
M  END
