690653.xyz
 OpenBabel08132112143D
OC(=O)c1ccc(cc1)/C=N/n1c(S)nnc1c1ccco1
 32 34  0  0  0  0  0  0  0  0999 V2000
   -9.5003    1.8989    1.2964 O   0  0  0  0  0  0  0  0  0  0  0  0
   -8.6942    1.0893    0.5802 C   0  0  0  0  0  0  0  0  0  0  0  0
   -9.0745    0.4928   -0.3991 O   0  0  0  0  0  0  0  0  0  0  0  0
   -7.3085    1.0185    1.1263 C   0  0  0  0  0  0  0  0  0  0  0  0
   -6.3780    0.2016    0.4610 C   0  0  0  0  0  0  0  0  0  0  0  0
   -5.0758    0.0984    0.9297 C   0  0  0  0  0  0  0  0  0  0  0  0
   -4.6773    0.8178    2.0736 C   0  0  0  0  0  0  0  0  0  0  0  0
   -5.6137    1.6280    2.7388 C   0  0  0  0  0  0  0  0  0  0  0  0
   -6.9212    1.7313    2.2695 C   0  0  0  0  0  0  0  0  0  0  0  0
   -3.3122    0.7467    2.5939 C   0  0  0  0  0  0  0  0  0  0  0  0
   -2.3957    0.0956    1.9773 N   0  0  0  0  0  0  0  0  0  0  0  0
   -1.1466    0.0403    2.5289 N   0  0  0  0  0  0  0  0  0  0  0  0
    0.0000    0.0000    1.7514 C   0  0  0  0  0  0  0  0  0  0  0  0
    0.0000    0.0000    0.0000 S   0  0  0  0  0  0  0  0  0  0  0  0
    1.0641    0.0000    2.5136 N   0  0  0  0  0  0  0  0  0  0  0  0
    0.6436   -0.0084    3.8169 N   0  0  0  0  0  0  0  0  0  0  0  0
   -0.6696    0.0198    3.8431 C   0  0  0  0  0  0  0  0  0  0  0  0
   -1.4510   -0.0487    5.0614 C   0  0  0  0  0  0  0  0  0  0  0  0
   -1.1353    0.3039    6.3498 C   0  0  0  0  0  0  0  0  0  0  0  0
   -2.2634   -0.0644    7.1515 C   0  0  0  0  0  0  0  0  0  0  0  0
   -3.1792   -0.6109    6.2968 C   0  0  0  0  0  0  0  0  0  0  0  0
   -2.6943   -0.6112    5.0266 O   0  0  0  0  0  0  0  0  0  0  0  0
  -10.3703    1.8779    0.8634 H   0  0  0  0  0  0  0  0  0  0  0  0
   -6.7072   -0.3469   -0.4229 H   0  0  0  0  0  0  0  0  0  0  0  0
   -4.3494   -0.5422    0.4282 H   0  0  0  0  0  0  0  0  0  0  0  0
   -5.3093    2.1812    3.6309 H   0  0  0  0  0  0  0  0  0  0  0  0
   -7.6476    2.3611    2.7831 H   0  0  0  0  0  0  0  0  0  0  0  0
   -3.1117    1.2869    3.5284 H   0  0  0  0  0  0  0  0  0  0  0  0
   -1.3495   -0.0898   -0.0737 H   0  0  0  0  0  0  0  0  0  0  0  0
   -0.2029    0.7629    6.6669 H   0  0  0  0  0  0  0  0  0  0  0  0
   -2.3770    0.0638    8.2255 H   0  0  0  0  0  0  0  0  0  0  0  0
   -4.1740   -1.0276    6.4266 H   0  0  0  0  0  0  0  0  0  0  0  0
  2  4  1  0  0  0  0
  2  1  1  0  0  0  0
  3  2  2  0  0  0  0
  4  9  2  0  0  0  0
  5  6  2  0  0  0  0
  5  4  1  0  0  0  0
  6  7  1  0  0  0  0
  7 10  1  0  0  0  0
  7  8  2  0  0  0  0
  8 26  1  0  0  0  0
  9  8  1  0  0  0  0
  9 27  1  0  0  0  0
 10 28  1  0  0  0  0
 11 12  1  0  0  0  0
 11 10  2  0  0  0  0
 12 17  1  0  0  0  0
 13 15  2  0  0  0  0
 13 12  1  0  0  0  0
 14 13  1  0  0  0  0
 15 16  1  0  0  0  0
 16 17  2  0  0  0  0
 17 18  1  0  0  0  0
 18 19  2  0  0  0  0
 19 30  1  0  0  0  0
 19 20  1  0  0  0  0
 20 31  1  0  0  0  0
 21 32  1  0  0  0  0
 21 20  2  0  0  0  0
 22 18  1  0  0  0  0
 22 21  1  0  0  0  0
 23  1  1  0  0  0  0
 24  5  1  0  0  0  0
 25  6  1  0  0  0  0
 29 14  1  0  0  0  0
M  END
