690757.xyz
 OpenBabel08132112143D
Cl/C(=C\c1ccccc1)/C=N/n1c(S)nnc1COc1ccccc1
 40 42  0  0  0  0  0  0  0  0999 V2000
    5.3761   -0.1685    2.1943 Cl  0  0  0  0  0  0  0  0  0  0  0  0
    4.3684    0.5481    0.9730 C   0  0  0  0  0  0  0  0  0  0  0  0
    4.8194    1.1292   -0.1699 C   0  0  0  0  0  0  0  0  0  0  0  0
    6.1482    1.3599   -0.7210 C   0  0  0  0  0  0  0  0  0  0  0  0
    6.2133    1.9066   -2.0230 C   0  0  0  0  0  0  0  0  0  0  0  0
    7.4339    2.1657   -2.6402 C   0  0  0  0  0  0  0  0  0  0  0  0
    8.6278    1.8905   -1.9665 C   0  0  0  0  0  0  0  0  0  0  0  0
    8.5840    1.3577   -0.6742 C   0  0  0  0  0  0  0  0  0  0  0  0
    7.3646    1.0929   -0.0541 C   0  0  0  0  0  0  0  0  0  0  0  0
    2.9367    0.5093    1.2385 C   0  0  0  0  0  0  0  0  0  0  0  0
    2.4738    0.0060    2.3221 N   0  0  0  0  0  0  0  0  0  0  0  0
    1.1348   -0.0000    2.5555 N   0  0  0  0  0  0  0  0  0  0  0  0
   -0.0000   -0.0000    1.7586 C   0  0  0  0  0  0  0  0  0  0  0  0
    0.0000    0.0000    0.0000 S   0  0  0  0  0  0  0  0  0  0  0  0
   -1.0669   -0.0892    2.5143 N   0  0  0  0  0  0  0  0  0  0  0  0
   -0.6587   -0.1305    3.8295 N   0  0  0  0  0  0  0  0  0  0  0  0
    0.6445   -0.0944    3.8488 C   0  0  0  0  0  0  0  0  0  0  0  0
    1.5567   -0.0715    5.0266 C   0  0  0  0  0  0  0  0  0  0  0  0
    2.2125    1.1893    5.0704 O   0  0  0  0  0  0  0  0  0  0  0  0
    3.5717    1.2601    5.1376 C   0  0  0  0  0  0  0  0  0  0  0  0
    4.3758    0.3004    5.7654 C   0  0  0  0  0  0  0  0  0  0  0  0
    5.7634    0.4732    5.7924 C   0  0  0  0  0  0  0  0  0  0  0  0
    6.3561    1.5971    5.2149 C   0  0  0  0  0  0  0  0  0  0  0  0
    5.5444    2.5603    4.6049 C   0  0  0  0  0  0  0  0  0  0  0  0
    4.1623    2.3945    4.5619 C   0  0  0  0  0  0  0  0  0  0  0  0
    4.0114    1.4969   -0.8114 H   0  0  0  0  0  0  0  0  0  0  0  0
    5.2830    2.1265   -2.5531 H   0  0  0  0  0  0  0  0  0  0  0  0
    7.4554    2.5852   -3.6486 H   0  0  0  0  0  0  0  0  0  0  0  0
    9.5885    2.0934   -2.4454 H   0  0  0  0  0  0  0  0  0  0  0  0
    9.5132    1.1463   -0.1400 H   0  0  0  0  0  0  0  0  0  0  0  0
    7.3507    0.6849    0.9532 H   0  0  0  0  0  0  0  0  0  0  0  0
    2.3015    0.9719    0.4693 H   0  0  0  0  0  0  0  0  0  0  0  0
   -1.3282   -0.2569   -0.0433 H   0  0  0  0  0  0  0  0  0  0  0  0
    2.2901   -0.8869    4.9358 H   0  0  0  0  0  0  0  0  0  0  0  0
    0.9525   -0.2223    5.9338 H   0  0  0  0  0  0  0  0  0  0  0  0
    3.9305   -0.5741    6.2419 H   0  0  0  0  0  0  0  0  0  0  0  0
    6.3837   -0.2819    6.2818 H   0  0  0  0  0  0  0  0  0  0  0  0
    7.4404    1.7242    5.2408 H   0  0  0  0  0  0  0  0  0  0  0  0
    5.9939    3.4446    4.1463 H   0  0  0  0  0  0  0  0  0  0  0  0
    3.5122    3.1258    4.0784 H   0  0  0  0  0  0  0  0  0  0  0  0
  2 10  1  0  0  0  0
  2  1  1  0  0  0  0
  3  2  2  0  0  0  0
  4  3  1  0  0  0  0
  4  9  2  0  0  0  0
  5  4  1  0  0  0  0
  6  5  2  0  0  0  0
  6  7  1  0  0  0  0
  7  8  2  0  0  0  0
  8 30  1  0  0  0  0
  8  9  1  0  0  0  0
  9 31  1  0  0  0  0
 10 11  2  0  0  0  0
 11 12  1  0  0  0  0
 12 17  1  0  0  0  0
 13 15  2  0  0  0  0
 13 12  1  0  0  0  0
 14 13  1  0  0  0  0
 15 16  1  0  0  0  0
 16 17  2  0  0  0  0
 17 18  1  0  0  0  0
 18 19  1  0  0  0  0
 18 35  1  0  0  0  0
 19 20  1  0  0  0  0
 20 21  2  0  0  0  0
 21 22  1  0  0  0  0
 21 36  1  0  0  0  0
 22 37  1  0  0  0  0
 23 38  1  0  0  0  0
 23 22  2  0  0  0  0
 24 23  1  0  0  0  0
 25 24  2  0  0  0  0
 25 20  1  0  0  0  0
 26  3  1  0  0  0  0
 27  5  1  0  0  0  0
 28  6  1  0  0  0  0
 29  7  1  0  0  0  0
 32 10  1  0  0  0  0
 33 14  1  0  0  0  0
 34 18  1  0  0  0  0
 39 24  1  0  0  0  0
 40 25  1  0  0  0  0
M  END
