72989037.xyz
 OpenBabel08132112143D
O=C(c1cccnc1S)NCCc1ccc(cc1)S(=O)(=O)N
 37 38  0  0  1  0  0  0  0  0999 V2000
   -3.5192    0.5473    2.6536 O   0  0  0  0  0  0  0  0  0  0  0  0
   -2.6096    0.0326    2.0160 C   0  0  0  0  0  0  0  0  0  0  0  0
   -1.1975    0.0462    2.5423 C   0  0  2  0  0  0  0  0  0  0  0  0
   -1.0657    0.1520    3.9330 C   0  0  0  0  0  0  0  0  0  0  0  0
    0.1943    0.1559    4.5235 C   0  0  0  0  0  0  0  0  0  0  0  0
    1.3047    0.0628    3.6819 C   0  0  0  0  0  0  0  0  0  0  0  0
    1.2075    0.0000    2.3547 N   0  0  0  0  0  0  0  0  0  0  0  0
   -0.0000   -0.0000    1.7887 C   0  0  0  0  0  0  0  0  0  0  0  0
    0.0000    0.0000    0.0000 S   0  0  0  0  0  0  0  0  0  0  0  0
   -2.8286   -0.6008    0.8305 N   0  0  0  0  0  0  0  0  0  0  0  0
   -4.1620   -0.6667    0.2671 C   0  0  0  0  0  0  0  0  0  0  0  0
   -5.0528   -1.7285    0.9426 C   0  0  0  0  0  0  0  0  0  0  0  0
   -6.4738   -1.6562    0.4484 C   0  0  0  0  0  0  0  0  0  0  0  0
   -6.9503   -2.5315   -0.5389 C   0  0  0  0  0  0  0  0  0  0  0  0
   -8.2536   -2.4251   -1.0264 C   0  0  0  0  0  0  0  0  0  0  0  0
   -9.0884   -1.4296   -0.5153 C   0  0  0  0  0  0  0  0  0  0  0  0
   -8.6344   -0.5311    0.4546 C   0  0  0  0  0  0  0  0  0  0  0  0
   -7.3310   -0.6528    0.9326 C   0  0  0  0  0  0  0  0  0  0  0  0
  -10.7774   -1.3092   -1.1063 S   0  0  0  0  0  0  0  0  0  0  0  0
  -10.8349   -1.9671   -2.4091 O   0  0  0  0  0  0  0  0  0  0  0  0
  -11.2265    0.0618   -0.8791 O   0  0  0  0  0  0  0  0  0  0  0  0
  -11.6988   -2.2615   -0.0789 N   0  0  0  0  0  0  0  0  0  0  0  0
   -1.9808    0.2313    4.5227 H   0  0  0  0  0  0  0  0  0  0  0  0
    0.3169    0.2279    5.6054 H   0  0  0  0  0  0  0  0  0  0  0  0
    2.3200    0.0463    4.0937 H   0  0  0  0  0  0  0  0  0  0  0  0
    1.3435   -0.1405   -0.0581 H   0  0  0  0  0  0  0  0  0  0  0  0
   -2.0813   -1.1318    0.3964 H   0  0  0  0  0  0  0  0  0  0  0  0
   -4.0778   -0.8653   -0.8119 H   0  0  0  0  0  0  0  0  0  0  0  0
   -4.6317    0.3200    0.3899 H   0  0  0  0  0  0  0  0  0  0  0  0
   -4.6310   -2.7301    0.7623 H   0  0  0  0  0  0  0  0  0  0  0  0
   -5.0245   -1.5415    2.0263 H   0  0  0  0  0  0  0  0  0  0  0  0
   -6.2890   -3.3069   -0.9349 H   0  0  0  0  0  0  0  0  0  0  0  0
   -8.6244   -3.0909   -1.8076 H   0  0  0  0  0  0  0  0  0  0  0  0
   -9.2977    0.2591    0.8108 H   0  0  0  0  0  0  0  0  0  0  0  0
   -6.9624    0.0437    1.6906 H   0  0  0  0  0  0  0  0  0  0  0  0
  -11.4647   -3.2511   -0.1344 H   0  0  0  0  0  0  0  0  0  0  0  0
  -11.7278   -1.9071    0.8754 H   0  0  0  0  0  0  0  0  0  0  0  0
  2  1  2  0  0  0  0
  3  2  1  6  0  0  0
  3  4  1  0  0  0  0
  4 23  1  0  0  0  0
  4  5  2  0  0  0  0
  5 24  1  0  0  0  0
  6 25  1  0  0  0  0
  6  5  1  0  0  0  0
  7  6  2  0  0  0  0
  8  7  2  0  0  0  0
  8  3  1  0  0  0  0
  9  8  1  0  0  0  0
 10  2  1  0  0  0  0
 11 29  1  0  0  0  0
 11 10  1  0  0  0  0
 11 12  1  0  0  0  0
 12 31  1  0  0  0  0
 13 18  2  0  0  0  0
 13 12  1  0  0  0  0
 14 13  1  0  0  0  0
 15 14  2  0  0  0  0
 15 16  1  0  0  0  0
 16 17  2  0  0  0  0
 17 34  1  0  0  0  0
 17 18  1  0  0  0  0
 18 35  1  0  0  0  0
 19 21  2  0  0  0  0
 19 16  1  0  0  0  0
 19 22  1  0  0  0  0
 20 19  2  0  0  0  0
 22 37  1  0  0  0  0
 26  9  1  0  0  0  0
 27 10  1  0  0  0  0
 28 11  1  0  0  0  0
 30 12  1  0  0  0  0
 32 14  1  0  0  0  0
 33 15  1  0  0  0  0
 36 22  1  0  0  0  0
M  RAD  1   3   2
M  END
