72988881.xyz
 OpenBabel08132112143D
CCCNC(=O)CN1CCN(CC1)Cn1nc(nc1S)c1cccs1
 49 51  0  0  0  0  0  0  0  0999 V2000
   -2.1411   -1.0956   -6.8521 C   0  0  0  0  0  0  0  0  0  0  0  0
   -1.0663   -1.7047   -5.9549 C   0  0  0  0  0  0  0  0  0  0  0  0
    0.1692   -0.8081   -5.8311 C   0  0  0  0  0  0  0  0  0  0  0  0
    1.2057   -1.3595   -4.9765 N   0  0  0  0  0  0  0  0  0  0  0  0
    1.1964   -1.1755   -3.6249 C   0  0  0  0  0  0  0  0  0  0  0  0
    0.3905   -0.4536   -3.0643 O   0  0  0  0  0  0  0  0  0  0  0  0
    2.2761   -1.9829   -2.8830 C   0  0  0  0  0  0  0  0  0  0  0  0
    2.5656   -1.4650   -1.5841 N   0  0  0  0  0  0  0  0  0  0  0  0
    3.1540   -0.1364   -1.5664 C   0  0  0  0  0  0  0  0  0  0  0  0
    3.6033    0.2307   -0.1395 C   0  0  0  0  0  0  0  0  0  0  0  0
    2.7464   -0.4251    0.8249 N   0  0  0  0  0  0  0  0  0  0  0  0
    2.8138   -1.8780    0.8041 C   0  0  0  0  0  0  0  0  0  0  0  0
    3.1466   -2.3669   -0.6171 C   0  0  0  0  0  0  0  0  0  0  0  0
    2.5255    0.1808    2.0945 C   0  0  0  0  0  0  0  0  0  0  0  0
    1.1365   -0.0000    2.5125 N   0  0  0  0  0  0  0  0  0  0  0  0
    0.8184   -0.0414    3.8290 N   0  0  0  0  0  0  0  0  0  0  0  0
   -0.5092   -0.0724    3.8114 C   0  0  0  0  0  0  0  0  0  0  0  0
   -1.0546   -0.0536    2.5565 N   0  0  0  0  0  0  0  0  0  0  0  0
   -0.0000    0.0000    1.7585 C   0  0  0  0  0  0  0  0  0  0  0  0
    0.0000    0.0000    0.0000 S   0  0  0  0  0  0  0  0  0  0  0  0
   -1.3162   -0.1303    5.0189 C   0  0  0  0  0  0  0  0  0  0  0  0
   -0.8976   -0.1550    6.3328 C   0  0  0  0  0  0  0  0  0  0  0  0
   -1.9818   -0.2118    7.2546 C   0  0  0  0  0  0  0  0  0  0  0  0
   -3.2056   -0.2296    6.6286 C   0  0  0  0  0  0  0  0  0  0  0  0
   -3.0530   -0.1778    4.9068 S   0  0  0  0  0  0  0  0  0  0  0  0
   -1.7653   -0.9294   -7.8758 H   0  0  0  0  0  0  0  0  0  0  0  0
   -2.4794   -0.1217   -6.4615 H   0  0  0  0  0  0  0  0  0  0  0  0
   -3.0233   -1.7501   -6.9238 H   0  0  0  0  0  0  0  0  0  0  0  0
   -0.7601   -2.6922   -6.3443 H   0  0  0  0  0  0  0  0  0  0  0  0
   -1.4682   -1.8755   -4.9424 H   0  0  0  0  0  0  0  0  0  0  0  0
    0.6031   -0.6120   -6.8258 H   0  0  0  0  0  0  0  0  0  0  0  0
   -0.1235    0.1609   -5.3995 H   0  0  0  0  0  0  0  0  0  0  0  0
    1.8700   -2.0126   -5.3741 H   0  0  0  0  0  0  0  0  0  0  0  0
    3.1751   -2.0632   -3.5445 H   0  0  0  0  0  0  0  0  0  0  0  0
    1.8771   -3.0068   -2.7776 H   0  0  0  0  0  0  0  0  0  0  0  0
    4.0342   -0.0642   -2.2475 H   0  0  0  0  0  0  0  0  0  0  0  0
    2.3967    0.5788   -1.9194 H   0  0  0  0  0  0  0  0  0  0  0  0
    4.6725   -0.0351    0.0081 H   0  0  0  0  0  0  0  0  0  0  0  0
    3.5294    1.3191   -0.0042 H   0  0  0  0  0  0  0  0  0  0  0  0
    1.8357   -2.2775    1.1163 H   0  0  0  0  0  0  0  0  0  0  0  0
    3.5730   -2.2644    1.5193 H   0  0  0  0  0  0  0  0  0  0  0  0
    2.7259   -3.3733   -0.7584 H   0  0  0  0  0  0  0  0  0  0  0  0
    4.2499   -2.4702   -0.7397 H   0  0  0  0  0  0  0  0  0  0  0  0
    2.7454    1.2589    2.0206 H   0  0  0  0  0  0  0  0  0  0  0  0
    3.1314   -0.2347    2.9245 H   0  0  0  0  0  0  0  0  0  0  0  0
   -1.3479    0.1526   -0.0332 H   0  0  0  0  0  0  0  0  0  0  0  0
    0.1573   -0.1322    6.6062 H   0  0  0  0  0  0  0  0  0  0  0  0
   -1.8608   -0.2382    8.3385 H   0  0  0  0  0  0  0  0  0  0  0  0
   -4.1926   -0.2702    7.0868 H   0  0  0  0  0  0  0  0  0  0  0  0
  1 27  1  0  0  0  0
  1  2  1  0  0  0  0
  2  3  1  0  0  0  0
  2 30  1  0  0  0  0
  3 32  1  0  0  0  0
  3  4  1  0  0  0  0
  4  5  1  0  0  0  0
  5  6  2  0  0  0  0
  5  7  1  0  0  0  0
  7 35  1  0  0  0  0
  7  8  1  0  0  0  0
  8  9  1  0  0  0  0
  8 13  1  0  0  0  0
  9 10  1  0  0  0  0
 10 39  1  0  0  0  0
 10 38  1  0  0  0  0
 10 11  1  0  0  0  0
 11 14  1  0  0  0  0
 12 11  1  0  0  0  0
 12 40  1  0  0  0  0
 12 41  1  0  0  0  0
 13 12  1  0  0  0  0
 14 15  1  0  0  0  0
 14 45  1  0  0  0  0
 15 16  1  0  0  0  0
 17 16  2  0  0  0  0
 17 21  1  0  0  0  0
 18 17  2  0  0  0  0
 19 15  1  0  0  0  0
 19 18  2  0  0  0  0
 20 19  1  0  0  0  0
 21 22  2  0  0  0  0
 22 47  1  0  0  0  0
 22 23  1  0  0  0  0
 23 48  1  0  0  0  0
 24 49  1  0  0  0  0
 24 23  2  0  0  0  0
 25 21  1  0  0  0  0
 25 24  1  0  0  0  0
 26  1  1  0  0  0  0
 28  1  1  0  0  0  0
 29  2  1  0  0  0  0
 31  3  1  0  0  0  0
 33  4  1  0  0  0  0
 34  7  1  0  0  0  0
 36  9  1  0  0  0  0
 37  9  1  0  0  0  0
 42 13  1  0  0  0  0
 43 13  1  0  0  0  0
 44 14  1  0  0  0  0
 46 20  1  0  0  0  0
M  END
