72989255.xyz
 OpenBabel08132112143D
Cc1ccc(cc1)c1nnc(n1CCC(=O)N1CCCC1)S
 42 44  0  0  0  0  0  0  0  0999 V2000
    3.7348    0.0713    8.7642 C   0  0  0  0  0  0  0  0  0  0  0  0
    2.9601    0.0278    7.4726 C   0  0  0  0  0  0  0  0  0  0  0  0
    3.4618   -0.6248    6.3382 C   0  0  0  0  0  0  0  0  0  0  0  0
    2.7375   -0.6642    5.1448 C   0  0  0  0  0  0  0  0  0  0  0  0
    1.4896   -0.0306    5.0448 C   0  0  0  0  0  0  0  0  0  0  0  0
    0.9696    0.6048    6.1881 C   0  0  0  0  0  0  0  0  0  0  0  0
    1.6937    0.6307    7.3755 C   0  0  0  0  0  0  0  0  0  0  0  0
    0.6849   -0.0252    3.8197 C   0  0  0  0  0  0  0  0  0  0  0  0
   -0.6313   -0.0355    3.8183 N   0  0  0  0  0  0  0  0  0  0  0  0
   -1.0653   -0.0324    2.5232 N   0  0  0  0  0  0  0  0  0  0  0  0
    0.0000    0.0000    1.7576 C   0  0  0  0  0  0  0  0  0  0  0  0
    1.1510    0.0000    2.5103 N   0  0  0  0  0  0  0  0  0  0  0  0
    2.4902    0.2687    1.9875 C   0  0  0  0  0  0  0  0  0  0  0  0
    3.1844    1.4540    2.6640 C   0  0  0  0  0  0  0  0  0  0  0  0
    2.2505    2.6602    2.7054 C   0  0  0  0  0  0  0  0  0  0  0  0
    1.5247    2.9141    1.7527 O   0  0  0  0  0  0  0  0  0  0  0  0
    2.2452    3.4097    3.8380 N   0  0  0  0  0  0  0  0  0  0  0  0
    3.0826    3.2514    5.0327 C   0  0  0  0  0  0  0  0  0  0  0  0
    2.4063    4.1701    6.0544 C   0  0  0  0  0  0  0  0  0  0  0  0
    1.8345    5.2993    5.1879 C   0  0  0  0  0  0  0  0  0  0  0  0
    1.3433    4.5642    3.9373 C   0  0  0  0  0  0  0  0  0  0  0  0
    0.0000    0.0000    0.0000 S   0  0  0  0  0  0  0  0  0  0  0  0
    4.7407   -0.3574    8.6482 H   0  0  0  0  0  0  0  0  0  0  0  0
    3.8451    1.1052    9.1300 H   0  0  0  0  0  0  0  0  0  0  0  0
    3.2170   -0.4954    9.5563 H   0  0  0  0  0  0  0  0  0  0  0  0
    4.4344   -1.1210    6.3908 H   0  0  0  0  0  0  0  0  0  0  0  0
    3.1462   -1.2068    4.2908 H   0  0  0  0  0  0  0  0  0  0  0  0
   -0.0101    1.0791    6.1157 H   0  0  0  0  0  0  0  0  0  0  0  0
    1.2736    1.1379    8.2486 H   0  0  0  0  0  0  0  0  0  0  0  0
    2.3579    0.5065    0.9246 H   0  0  0  0  0  0  0  0  0  0  0  0
    3.1162   -0.6345    2.0548 H   0  0  0  0  0  0  0  0  0  0  0  0
    3.5589    1.1828    3.6554 H   0  0  0  0  0  0  0  0  0  0  0  0
    4.0624    1.7225    2.0528 H   0  0  0  0  0  0  0  0  0  0  0  0
    4.1208    3.5761    4.8321 H   0  0  0  0  0  0  0  0  0  0  0  0
    3.1117    2.2097    5.3768 H   0  0  0  0  0  0  0  0  0  0  0  0
    1.5905    3.6203    6.5509 H   0  0  0  0  0  0  0  0  0  0  0  0
    3.1013    4.5167    6.8330 H   0  0  0  0  0  0  0  0  0  0  0  0
    1.0351    5.8681    5.6842 H   0  0  0  0  0  0  0  0  0  0  0  0
    2.6335    6.0106    4.9196 H   0  0  0  0  0  0  0  0  0  0  0  0
    0.3014    4.2140    4.0423 H   0  0  0  0  0  0  0  0  0  0  0  0
    1.3873    5.1641    3.0170 H   0  0  0  0  0  0  0  0  0  0  0  0
   -1.3416    0.1544   -0.0484 H   0  0  0  0  0  0  0  0  0  0  0  0
  1 24  1  0  0  0  0
  1 25  1  0  0  0  0
  2  1  1  0  0  0  0
  3 26  1  0  0  0  0
  3  2  2  0  0  0  0
  4  3  1  0  0  0  0
  5  4  2  0  0  0  0
  5  6  1  0  0  0  0
  6  7  2  0  0  0  0
  7  2  1  0  0  0  0
  7 29  1  0  0  0  0
  8  5  1  0  0  0  0
  9  8  2  0  0  0  0
 10  9  1  0  0  0  0
 11 12  1  0  0  0  0
 11 10  2  0  0  0  0
 12  8  1  0  0  0  0
 13 31  1  0  0  0  0
 13 12  1  0  0  0  0
 13 14  1  0  0  0  0
 14 15  1  0  0  0  0
 14 32  1  0  0  0  0
 15 17  1  0  0  0  0
 16 15  2  0  0  0  0
 17 21  1  0  0  0  0
 17 18  1  0  0  0  0
 18 35  1  0  0  0  0
 18 19  1  0  0  0  0
 19 36  1  0  0  0  0
 19 37  1  0  0  0  0
 20 38  1  0  0  0  0
 20 19  1  0  0  0  0
 21 40  1  0  0  0  0
 21 20  1  0  0  0  0
 22 11  1  0  0  0  0
 23  1  1  0  0  0  0
 27  4  1  0  0  0  0
 28  6  1  0  0  0  0
 30 13  1  0  0  0  0
 33 14  1  0  0  0  0
 34 18  1  0  0  0  0
 39 20  1  0  0  0  0
 41 21  1  0  0  0  0
 42 22  1  0  0  0  0
M  END
