73000177.xyz
 OpenBabel08132112143D
Cc1ccc(c(c1)n1cc(nc1S)c1ccc(c(c1)Cl)Cl)C
 36 38  0  0  0  0  0  0  0  0999 V2000
    5.3651    2.3918    1.2878 C   0  0  0  0  0  0  0  0  0  0  0  0
    4.5467    1.1269    1.3327 C   0  0  0  0  0  0  0  0  0  0  0  0
    5.0585   -0.0933    0.8690 C   0  0  0  0  0  0  0  0  0  0  0  0
    4.3078   -1.2677    0.9384 C   0  0  0  0  0  0  0  0  0  0  0  0
    3.0121   -1.2813    1.4714 C   0  0  0  0  0  0  0  0  0  0  0  0
    2.5022   -0.0517    1.9274 C   0  0  0  0  0  0  0  0  0  0  0  0
    3.2496    1.1261    1.8602 C   0  0  0  0  0  0  0  0  0  0  0  0
    1.1806    0.0000    2.4697 N   0  0  0  0  0  0  0  0  0  0  0  0
    0.8335    0.0189    3.8126 C   0  0  0  0  0  0  0  0  0  0  0  0
   -0.5486    0.0279    3.8487 C   0  0  0  0  0  0  0  0  0  0  0  0
   -1.0437    0.0180    2.5560 N   0  0  0  0  0  0  0  0  0  0  0  0
   -0.0000   -0.0000    1.7651 C   0  0  0  0  0  0  0  0  0  0  0  0
    0.0000    0.0000    0.0000 S   0  0  0  0  0  0  0  0  0  0  0  0
   -1.4455    0.0456    5.0085 C   0  0  0  0  0  0  0  0  0  0  0  0
   -0.9609    0.0601    6.3285 C   0  0  0  0  0  0  0  0  0  0  0  0
   -1.8385    0.0761    7.4077 C   0  0  0  0  0  0  0  0  0  0  0  0
   -3.2221    0.0780    7.1980 C   0  0  0  0  0  0  0  0  0  0  0  0
   -3.7163    0.0638    5.8838 C   0  0  0  0  0  0  0  0  0  0  0  0
   -2.8338    0.0478    4.8041 C   0  0  0  0  0  0  0  0  0  0  0  0
   -5.4301    0.0659    5.5766 Cl  0  0  0  0  0  0  0  0  0  0  0  0
   -4.2945    0.0981    8.5674 Cl  0  0  0  0  0  0  0  0  0  0  0  0
    2.1935   -2.5420    1.5430 C   0  0  0  0  0  0  0  0  0  0  0  0
    5.9125    2.5422    2.2345 H   0  0  0  0  0  0  0  0  0  0  0  0
    4.7303    3.2775    1.1341 H   0  0  0  0  0  0  0  0  0  0  0  0
    6.1110    2.3596    0.4799 H   0  0  0  0  0  0  0  0  0  0  0  0
    6.0653   -0.1255    0.4442 H   0  0  0  0  0  0  0  0  0  0  0  0
    4.7373   -2.2032    0.5711 H   0  0  0  0  0  0  0  0  0  0  0  0
    2.7966    2.0523    2.2212 H   0  0  0  0  0  0  0  0  0  0  0  0
    1.5959    0.0166    4.5855 H   0  0  0  0  0  0  0  0  0  0  0  0
   -1.3486   -0.0625   -0.0559 H   0  0  0  0  0  0  0  0  0  0  0  0
    0.1137    0.0594    6.5204 H   0  0  0  0  0  0  0  0  0  0  0  0
   -1.4635    0.0874    8.4320 H   0  0  0  0  0  0  0  0  0  0  0  0
   -3.2191    0.0373    3.7852 H   0  0  0  0  0  0  0  0  0  0  0  0
    1.7120   -2.6538    2.5267 H   0  0  0  0  0  0  0  0  0  0  0  0
    1.3866   -2.5287    0.7917 H   0  0  0  0  0  0  0  0  0  0  0  0
    2.8178   -3.4270    1.3572 H   0  0  0  0  0  0  0  0  0  0  0  0
  1  2  1  0  0  0  0
  1 23  1  0  0  0  0
  2  7  2  0  0  0  0
  3  4  2  0  0  0  0
  3  2  1  0  0  0  0
  4  5  1  0  0  0  0
  5 22  1  0  0  0  0
  5  6  2  0  0  0  0
  6  8  1  0  0  0  0
  7  6  1  0  0  0  0
  7 28  1  0  0  0  0
  8  9  1  0  0  0  0
  9 10  1  0  0  0  0
  9 29  1  0  0  0  0
 10 14  1  0  0  0  0
 11 10  2  0  0  0  0
 12  8  1  0  0  0  0
 12 11  2  0  0  0  0
 13 12  1  0  0  0  0
 14 15  1  0  0  0  0
 15 31  1  0  0  0  0
 15 16  2  0  0  0  0
 16 32  1  0  0  0  0
 17 16  1  0  0  0  0
 17 21  1  0  0  0  0
 18 17  2  0  0  0  0
 19 14  2  0  0  0  0
 19 18  1  0  0  0  0
 20 18  1  0  0  0  0
 22 34  1  0  0  0  0
 24  1  1  0  0  0  0
 25  1  1  0  0  0  0
 26  3  1  0  0  0  0
 27  4  1  0  0  0  0
 30 13  1  0  0  0  0
 33 19  1  0  0  0  0
 35 22  1  0  0  0  0
 36 22  1  0  0  0  0
M  RAD  1   9   2
M  END
