75912054.xyz
 OpenBabel08132112143D
CCOC(=O)C1CCCN(C1)Cn1nc(nc1S)c1cccs1
 43 45  0  0  1  0  0  0  0  0999 V2000
    6.3494    0.9600   -4.6684 C   0  0  0  0  0  0  0  0  0  0  0  0
    5.4785    2.1449   -4.2909 C   0  0  0  0  0  0  0  0  0  0  0  0
    4.3828    1.7477   -3.4454 O   0  0  0  0  0  0  0  0  0  0  0  0
    4.6281    1.6369   -2.1283 C   0  0  0  0  0  0  0  0  0  0  0  0
    5.7124    1.8387   -1.6313 O   0  0  0  0  0  0  0  0  0  0  0  0
    3.3620    1.2960   -1.3655 C   0  0  2  0  0  0  0  0  0  0  0  0
    2.5763    2.6055   -1.0768 C   0  0  0  0  0  0  0  0  0  0  0  0
    3.0557    3.2193    0.2365 C   0  0  0  0  0  0  0  0  0  0  0  0
    2.7304    2.2800    1.4088 C   0  0  0  0  0  0  0  0  0  0  0  0
    2.7001    0.8869    0.9653 N   0  0  0  0  0  0  0  0  0  0  0  0
    3.6904    0.5603   -0.0488 C   0  0  0  0  0  0  0  0  0  0  0  0
    2.5159   -0.0571    2.0239 C   0  0  0  0  0  0  0  0  0  0  0  0
    1.1397   -0.0000    2.4990 N   0  0  0  0  0  0  0  0  0  0  0  0
    0.8302    0.0072    3.8164 N   0  0  0  0  0  0  0  0  0  0  0  0
   -0.4992    0.0027    3.8096 C   0  0  0  0  0  0  0  0  0  0  0  0
   -1.0526    0.0024    2.5558 N   0  0  0  0  0  0  0  0  0  0  0  0
    0.0000   -0.0000    1.7593 C   0  0  0  0  0  0  0  0  0  0  0  0
    0.0000    0.0000    0.0000 S   0  0  0  0  0  0  0  0  0  0  0  0
   -1.2988    0.0069    5.0228 C   0  0  0  0  0  0  0  0  0  0  0  0
   -0.8691    0.0054    6.3334 C   0  0  0  0  0  0  0  0  0  0  0  0
   -1.9464    0.0106    7.2647 C   0  0  0  0  0  0  0  0  0  0  0  0
   -3.1754    0.0160    6.6488 C   0  0  0  0  0  0  0  0  0  0  0  0
   -3.0372    0.0156    4.9256 S   0  0  0  0  0  0  0  0  0  0  0  0
    7.1290    1.2777   -5.3788 H   0  0  0  0  0  0  0  0  0  0  0  0
    6.8444    0.5447   -3.7787 H   0  0  0  0  0  0  0  0  0  0  0  0
    5.7495    0.1694   -5.1452 H   0  0  0  0  0  0  0  0  0  0  0  0
    6.0673    2.9158   -3.7722 H   0  0  0  0  0  0  0  0  0  0  0  0
    5.0000    2.5898   -5.1749 H   0  0  0  0  0  0  0  0  0  0  0  0
    2.7438    0.6632   -2.0174 H   0  0  0  0  0  0  0  0  0  0  0  0
    2.6960    3.3059   -1.9172 H   0  0  0  0  0  0  0  0  0  0  0  0
    1.5053    2.3646   -1.0062 H   0  0  0  0  0  0  0  0  0  0  0  0
    4.1423    3.3931    0.1762 H   0  0  0  0  0  0  0  0  0  0  0  0
    2.5879    4.2002    0.4096 H   0  0  0  0  0  0  0  0  0  0  0  0
    1.7411    2.5224    1.8305 H   0  0  0  0  0  0  0  0  0  0  0  0
    3.4676    2.4186    2.2291 H   0  0  0  0  0  0  0  0  0  0  0  0
    3.6742   -0.5270   -0.2151 H   0  0  0  0  0  0  0  0  0  0  0  0
    4.7178    0.8261    0.2669 H   0  0  0  0  0  0  0  0  0  0  0  0
    3.1387    0.1169    2.9235 H   0  0  0  0  0  0  0  0  0  0  0  0
    2.7288   -1.0697    1.6432 H   0  0  0  0  0  0  0  0  0  0  0  0
   -1.3145   -0.3305   -0.0482 H   0  0  0  0  0  0  0  0  0  0  0  0
    0.1881    0.0006    6.5985 H   0  0  0  0  0  0  0  0  0  0  0  0
   -1.8169    0.0100    8.3478 H   0  0  0  0  0  0  0  0  0  0  0  0
   -4.1592    0.0201    7.1156 H   0  0  0  0  0  0  0  0  0  0  0  0
  1  2  1  0  0  0  0
  1 25  1  0  0  0  0
  2 27  1  0  0  0  0
  2  3  1  0  0  0  0
  3  4  1  0  0  0  0
  4  5  2  0  0  0  0
  4  6  1  0  0  0  0
  6 29  1  6  0  0  0
  6  7  1  0  0  0  0
  6 11  1  0  0  0  0
  7 31  1  0  0  0  0
  7  8  1  0  0  0  0
  8 33  1  0  0  0  0
  8  9  1  0  0  0  0
  9 34  1  0  0  0  0
  9 35  1  0  0  0  0
 10  9  1  0  0  0  0
 10 12  1  0  0  0  0
 11 37  1  0  0  0  0
 11 10  1  0  0  0  0
 12 13  1  0  0  0  0
 12 38  1  0  0  0  0
 13 14  1  0  0  0  0
 15 14  2  0  0  0  0
 15 19  1  0  0  0  0
 16 15  2  0  0  0  0
 17 13  1  0  0  0  0
 17 16  2  0  0  0  0
 18 17  1  0  0  0  0
 19 20  2  0  0  0  0
 20 41  1  0  0  0  0
 20 21  1  0  0  0  0
 21 42  1  0  0  0  0
 22 43  1  0  0  0  0
 22 21  2  0  0  0  0
 23 19  1  0  0  0  0
 23 22  1  0  0  0  0
 24  1  1  0  0  0  0
 26  1  1  0  0  0  0
 28  2  1  0  0  0  0
 30  7  1  0  0  0  0
 32  8  1  0  0  0  0
 36 11  1  0  0  0  0
 39 12  1  0  0  0  0
 40 18  1  0  0  0  0
M  END
