75915173.xyz
 OpenBabel08132112143D
O=C(N1CCCCC1)N1CCN(CC1)C(=O)c1cnc(n1c1ccccc1)S
 53 56  0  0  1  0  0  0  0  0999 V2000
    4.2556    3.9092    4.1720 O   0  0  0  0  0  0  0  0  0  0  0  0
    3.0450    3.8182    4.3449 C   0  0  0  0  0  0  0  0  0  0  0  0
    2.1395    4.3500    3.4387 N   0  0  0  0  0  0  0  0  0  0  0  0
    2.7239    5.2107    2.4035 C   0  0  0  0  0  0  0  0  0  0  0  0
    1.6178    5.9557    1.6628 C   0  0  0  0  0  0  0  0  0  0  0  0
    0.6732    4.9858    0.9211 C   0  0  0  0  0  0  0  0  0  0  0  0
    0.6507    3.6079    1.6051 C   0  0  0  0  0  0  0  0  0  0  0  0
    0.8485    3.7250    3.1161 C   0  0  0  0  0  0  0  0  0  0  0  0
    2.5307    3.1519    5.4446 N   0  0  0  0  0  0  0  0  0  0  0  0
    1.2498    3.3783    6.0802 C   0  0  0  0  0  0  0  0  0  0  0  0
    0.4607    2.0408    6.1218 C   0  0  0  0  0  0  0  0  0  0  0  0
    1.4029    0.9275    6.0907 N   0  0  0  0  0  0  0  0  0  0  0  0
    2.5799    1.1982    6.9126 C   0  0  0  0  0  0  0  0  0  0  0  0
    3.4249    2.3000    6.2235 C   0  0  0  0  0  0  0  0  0  0  0  0
    1.6400    0.1201    4.9935 C   0  0  0  0  0  0  0  0  0  0  0  0
    2.6611   -0.5502    4.9100 O   0  0  0  0  0  0  0  0  0  0  0  0
    0.6607    0.1154    3.8793 C   0  0  2  0  0  0  0  0  0  0  0  0
   -0.7173    0.1366    3.7732 C   0  0  0  0  0  0  0  0  0  0  0  0
   -1.1112    0.0660    2.4654 N   0  0  0  0  0  0  0  0  0  0  0  0
   -0.0000    0.0000    1.7613 C   0  0  0  0  0  0  0  0  0  0  0  0
    1.1208    0.0000    2.5591 N   0  0  0  0  0  0  0  0  0  0  0  0
    2.4832   -0.0079    2.1258 C   0  0  0  0  0  0  0  0  0  0  0  0
    3.2865    1.1087    2.3650 C   0  0  0  0  0  0  0  0  0  0  0  0
    4.6201    1.1116    1.9611 C   0  0  0  0  0  0  0  0  0  0  0  0
    5.1454    0.0001    1.2948 C   0  0  0  0  0  0  0  0  0  0  0  0
    4.3360   -1.1135    1.0484 C   0  0  0  0  0  0  0  0  0  0  0  0
    3.0050   -1.1281    1.4732 C   0  0  0  0  0  0  0  0  0  0  0  0
    0.0000    0.0000    0.0000 S   0  0  0  0  0  0  0  0  0  0  0  0
    3.4209    5.9059    2.8901 H   0  0  0  0  0  0  0  0  0  0  0  0
    3.3311    4.6148    1.6960 H   0  0  0  0  0  0  0  0  0  0  0  0
    1.0508    6.5486    2.4000 H   0  0  0  0  0  0  0  0  0  0  0  0
    2.0688    6.6763    0.9635 H   0  0  0  0  0  0  0  0  0  0  0  0
    0.9905    4.8658   -0.1271 H   0  0  0  0  0  0  0  0  0  0  0  0
   -0.3428    5.4116    0.8884 H   0  0  0  0  0  0  0  0  0  0  0  0
    1.4492    2.9691    1.1973 H   0  0  0  0  0  0  0  0  0  0  0  0
   -0.2928    3.0769    1.4079 H   0  0  0  0  0  0  0  0  0  0  0  0
    0.8148    2.7246    3.5607 H   0  0  0  0  0  0  0  0  0  0  0  0
    0.0051    4.2971    3.5478 H   0  0  0  0  0  0  0  0  0  0  0  0
    0.6871    4.1583    5.5581 H   0  0  0  0  0  0  0  0  0  0  0  0
    1.4211    3.7523    7.1069 H   0  0  0  0  0  0  0  0  0  0  0  0
   -0.1558    1.9881    7.0354 H   0  0  0  0  0  0  0  0  0  0  0  0
   -0.2114    1.9685    5.2634 H   0  0  0  0  0  0  0  0  0  0  0  0
    2.2361    1.5140    7.9094 H   0  0  0  0  0  0  0  0  0  0  0  0
    3.1688    0.2817    7.0207 H   0  0  0  0  0  0  0  0  0  0  0  0
    3.9891    2.8819    6.9768 H   0  0  0  0  0  0  0  0  0  0  0  0
    4.1530    1.8544    5.5354 H   0  0  0  0  0  0  0  0  0  0  0  0
   -1.4438    0.1695    4.5837 H   0  0  0  0  0  0  0  0  0  0  0  0
    2.8716    1.9682    2.8792 H   0  0  0  0  0  0  0  0  0  0  0  0
    5.2328    1.9876    2.1837 H   0  0  0  0  0  0  0  0  0  0  0  0
    6.1892   -0.0026    0.9729 H   0  0  0  0  0  0  0  0  0  0  0  0
    4.7475   -1.9873    0.5382 H   0  0  0  0  0  0  0  0  0  0  0  0
    2.3727   -2.0030    1.3137 H   0  0  0  0  0  0  0  0  0  0  0  0
    1.3446    0.0629   -0.1319 H   0  0  0  0  0  0  0  0  0  0  0  0
  1  2  2  0  0  0  0
  2  9  1  0  0  0  0
  3  2  1  0  0  0  0
  4 29  1  0  0  0  0
  4  3  1  0  0  0  0
  5 31  1  0  0  0  0
  5  4  1  0  0  0  0
  6  7  1  0  0  0  0
  6  5  1  0  0  0  0
  7  8  1  0  0  0  0
  8  3  1  0  0  0  0
  8 38  1  0  0  0  0
  8 37  1  0  0  0  0
  9 10  1  0  0  0  0
  9 14  1  0  0  0  0
 10 11  1  0  0  0  0
 10 40  1  0  0  0  0
 11 41  1  0  0  0  0
 12 11  1  0  0  0  0
 12 13  1  0  0  0  0
 13 44  1  0  0  0  0
 13 43  1  0  0  0  0
 14 13  1  0  0  0  0
 14 45  1  0  0  0  0
 15 12  1  0  0  0  0
 16 15  2  0  0  0  0
 17 15  1  1  0  0  0
 18 17  1  0  0  0  0
 18 47  1  0  0  0  0
 19 18  2  0  0  0  0
 20 19  2  0  0  0  0
 20 21  1  0  0  0  0
 21 17  1  0  0  0  0
 22 23  1  0  0  0  0
 22 21  1  0  0  0  0
 23 48  1  0  0  0  0
 24 49  1  0  0  0  0
 24 23  2  0  0  0  0
 25 24  1  0  0  0  0
 26 25  2  0  0  0  0
 26 27  1  0  0  0  0
 27 22  2  0  0  0  0
 28 20  1  0  0  0  0
 30  4  1  0  0  0  0
 32  5  1  0  0  0  0
 33  6  1  0  0  0  0
 34  6  1  0  0  0  0
 35  7  1  0  0  0  0
 36  7  1  0  0  0  0
 39 10  1  0  0  0  0
 42 11  1  0  0  0  0
 46 14  1  0  0  0  0
 50 25  1  0  0  0  0
 51 26  1  0  0  0  0
 52 27  1  0  0  0  0
 53 28  1  0  0  0  0
M  RAD  1  17   2
M  END
