75935812.xyz
 OpenBabel08132112143D
O=C(Cn1c(S)nnc1c1cccs1)NCCc1c[nH]c2c1cccc2
 43 46  0  0  0  0  0  0  0  0999 V2000
    3.0870    2.1286    2.2800 O   0  0  0  0  0  0  0  0  0  0  0  0
    3.2005    1.1273    1.5945 C   0  0  0  0  0  0  0  0  0  0  0  0
    2.4982   -0.1810    1.9695 C   0  0  0  0  0  0  0  0  0  0  0  0
    1.1632    0.0000    2.4868 N   0  0  0  0  0  0  0  0  0  0  0  0
    0.0000   -0.0000    1.7598 C   0  0  0  0  0  0  0  0  0  0  0  0
    0.0000    0.0000    0.0000 S   0  0  0  0  0  0  0  0  0  0  0  0
   -1.0463   -0.0094    2.5507 N   0  0  0  0  0  0  0  0  0  0  0  0
   -0.5814   -0.0063    3.8398 N   0  0  0  0  0  0  0  0  0  0  0  0
    0.7340    0.0122    3.8042 C   0  0  0  0  0  0  0  0  0  0  0  0
    1.6184    0.0447    4.9598 C   0  0  0  0  0  0  0  0  0  0  0  0
    2.7104    0.8570    5.1909 C   0  0  0  0  0  0  0  0  0  0  0  0
    3.2777    0.6481    6.4815 C   0  0  0  0  0  0  0  0  0  0  0  0
    2.6218   -0.3207    7.2043 C   0  0  0  0  0  0  0  0  0  0  0  0
    1.2931   -0.9871    6.3271 S   0  0  0  0  0  0  0  0  0  0  0  0
    3.9946    1.0429    0.4905 N   0  0  0  0  0  0  0  0  0  0  0  0
    5.0845    1.9785    0.2696 C   0  0  0  0  0  0  0  0  0  0  0  0
    6.4408    1.4258    0.7740 C   0  0  0  0  0  0  0  0  0  0  0  0
    6.3182    0.8334    2.1462 C   0  0  0  0  0  0  0  0  0  0  0  0
    6.3598    1.4987    3.3517 C   0  0  0  0  0  0  0  0  0  0  0  0
    5.9806    0.6505    4.3720 N   0  0  0  0  0  0  0  0  0  0  0  0
    5.6575   -0.5819    3.8500 C   0  0  0  0  0  0  0  0  0  0  0  0
    5.8848   -0.5121    2.4436 C   0  0  0  0  0  0  0  0  0  0  0  0
    5.6237   -1.6516    1.6573 C   0  0  0  0  0  0  0  0  0  0  0  0
    5.1205   -2.7960    2.2677 C   0  0  0  0  0  0  0  0  0  0  0  0
    4.8700   -2.8292    3.6581 C   0  0  0  0  0  0  0  0  0  0  0  0
    5.1394   -1.7284    4.4668 C   0  0  0  0  0  0  0  0  0  0  0  0
    2.4573   -0.8830    1.1237 H   0  0  0  0  0  0  0  0  0  0  0  0
    3.1110   -0.6525    2.7518 H   0  0  0  0  0  0  0  0  0  0  0  0
   -1.3333   -0.2152   -0.0599 H   0  0  0  0  0  0  0  0  0  0  0  0
    3.0500    1.5883    4.4570 H   0  0  0  0  0  0  0  0  0  0  0  0
    4.1183    1.2188    6.8811 H   0  0  0  0  0  0  0  0  0  0  0  0
    2.8345   -0.6617    8.2165 H   0  0  0  0  0  0  0  0  0  0  0  0
    4.0642    0.1348    0.0458 H   0  0  0  0  0  0  0  0  0  0  0  0
    4.8196    2.8886    0.8240 H   0  0  0  0  0  0  0  0  0  0  0  0
    5.1453    2.2366   -0.8001 H   0  0  0  0  0  0  0  0  0  0  0  0
    7.1766    2.2460    0.7550 H   0  0  0  0  0  0  0  0  0  0  0  0
    6.8122    0.6619    0.0696 H   0  0  0  0  0  0  0  0  0  0  0  0
    6.6068    2.5385    3.5575 H   0  0  0  0  0  0  0  0  0  0  0  0
    5.8861    0.9074    5.3441 H   0  0  0  0  0  0  0  0  0  0  0  0
    5.8119   -1.6393    0.5802 H   0  0  0  0  0  0  0  0  0  0  0  0
    4.9100   -3.6833    1.6664 H   0  0  0  0  0  0  0  0  0  0  0  0
    4.4545   -3.7339    4.1070 H   0  0  0  0  0  0  0  0  0  0  0  0
    4.9282   -1.7466    5.5372 H   0  0  0  0  0  0  0  0  0  0  0  0
  2  3  1  0  0  0  0
  2  1  2  0  0  0  0
  3  4  1  0  0  0  0
  3 28  1  0  0  0  0
  4  9  1  0  0  0  0
  5  4  1  0  0  0  0
  5  7  2  0  0  0  0
  6  5  1  0  0  0  0
  7  8  1  0  0  0  0
  9  8  2  0  0  0  0
  9 10  1  0  0  0  0
 10 11  2  0  0  0  0
 10 14  1  0  0  0  0
 11 12  1  0  0  0  0
 12 31  1  0  0  0  0
 12 13  2  0  0  0  0
 13 32  1  0  0  0  0
 14 13  1  0  0  0  0
 15  2  1  0  0  0  0
 16 15  1  0  0  0  0
 16 17  1  0  0  0  0
 16 34  1  0  0  0  0
 17 18  1  0  0  0  0
 18 22  1  0  0  0  0
 18 19  2  0  0  0  0
 19 38  1  0  0  0  0
 19 20  1  0  0  0  0
 20 39  1  0  0  0  0
 21 20  1  0  0  0  0
 21 26  1  0  0  0  0
 22 21  2  0  0  0  0
 23 24  2  0  0  0  0
 23 22  1  0  0  0  0
 24 25  1  0  0  0  0
 25 42  1  0  0  0  0
 25 26  2  0  0  0  0
 26 43  1  0  0  0  0
 27  3  1  0  0  0  0
 29  6  1  0  0  0  0
 30 11  1  0  0  0  0
 33 15  1  0  0  0  0
 35 16  1  0  0  0  0
 36 17  1  0  0  0  0
 37 17  1  0  0  0  0
 40 23  1  0  0  0  0
 41 24  1  0  0  0  0
M  END
