75935804.xyz
 OpenBabel08132112143D
Cc1cccc(c1)c1nnc(n1CC(=O)N1CCN(CC1)c1ccccc1Cl)S
 51 54  0  0  0  0  0  0  0  0999 V2000
    4.8344    1.7819    6.1587 C   0  0  0  0  0  0  0  0  0  0  0  0
    3.6173    0.8915    6.1252 C   0  0  0  0  0  0  0  0  0  0  0  0
    3.2820    0.0946    7.2313 C   0  0  0  0  0  0  0  0  0  0  0  0
    2.1306   -0.6957    7.2210 C   0  0  0  0  0  0  0  0  0  0  0  0
    1.3024   -0.7220    6.0990 C   0  0  0  0  0  0  0  0  0  0  0  0
    1.6317    0.0515    4.9750 C   0  0  0  0  0  0  0  0  0  0  0  0
    2.7793    0.8642    5.0039 C   0  0  0  0  0  0  0  0  0  0  0  0
    0.7441    0.0275    3.8061 C   0  0  0  0  0  0  0  0  0  0  0  0
   -0.5703    0.0102    3.8431 N   0  0  0  0  0  0  0  0  0  0  0  0
   -1.0425    0.0012    2.5547 N   0  0  0  0  0  0  0  0  0  0  0  0
    0.0000   -0.0000    1.7620 C   0  0  0  0  0  0  0  0  0  0  0  0
    1.1661    0.0000    2.4859 N   0  0  0  0  0  0  0  0  0  0  0  0
    2.4922   -0.1359    1.9310 C   0  0  0  0  0  0  0  0  0  0  0  0
    3.0080    1.2138    1.4005 C   0  0  0  0  0  0  0  0  0  0  0  0
    2.6651    2.2411    1.9643 O   0  0  0  0  0  0  0  0  0  0  0  0
    3.8568    1.2016    0.3322 N   0  0  0  0  0  0  0  0  0  0  0  0
    4.2443    0.0520   -0.4765 C   0  0  0  0  0  0  0  0  0  0  0  0
    3.5779    0.1237   -1.8501 C   0  0  0  0  0  0  0  0  0  0  0  0
    3.8832    1.4080   -2.4723 N   0  0  0  0  0  0  0  0  0  0  0  0
    3.5339    2.5722   -1.6571 C   0  0  0  0  0  0  0  0  0  0  0  0
    4.2154    2.4729   -0.2943 C   0  0  0  0  0  0  0  0  0  0  0  0
    3.6221    1.5090   -3.8689 C   0  0  0  0  0  0  0  0  0  0  0  0
    4.7152    1.6056   -4.7431 C   0  0  0  0  0  0  0  0  0  0  0  0
    4.5449    1.7071   -6.1242 C   0  0  0  0  0  0  0  0  0  0  0  0
    3.2561    1.7129   -6.6630 C   0  0  0  0  0  0  0  0  0  0  0  0
    2.1477    1.6185   -5.8205 C   0  0  0  0  0  0  0  0  0  0  0  0
    2.3325    1.5184   -4.4389 C   0  0  0  0  0  0  0  0  0  0  0  0
    0.9077    1.4090   -3.4235 Cl  0  0  0  0  0  0  0  0  0  0  0  0
    0.0000    0.0000    0.0000 S   0  0  0  0  0  0  0  0  0  0  0  0
    5.7356    1.2191    6.4520 H   0  0  0  0  0  0  0  0  0  0  0  0
    5.0219    2.2438    5.1785 H   0  0  0  0  0  0  0  0  0  0  0  0
    4.7099    2.5955    6.8930 H   0  0  0  0  0  0  0  0  0  0  0  0
    3.9261    0.1032    8.1152 H   0  0  0  0  0  0  0  0  0  0  0  0
    1.8785   -1.3007    8.0954 H   0  0  0  0  0  0  0  0  0  0  0  0
    0.3988   -1.3329    6.0758 H   0  0  0  0  0  0  0  0  0  0  0  0
    2.9873    1.5208    4.1566 H   0  0  0  0  0  0  0  0  0  0  0  0
    2.4538   -0.9138    1.1581 H   0  0  0  0  0  0  0  0  0  0  0  0
    3.1715   -0.4841    2.7230 H   0  0  0  0  0  0  0  0  0  0  0  0
    5.3405    0.0773   -0.6012 H   0  0  0  0  0  0  0  0  0  0  0  0
    3.9942   -0.8894    0.0242 H   0  0  0  0  0  0  0  0  0  0  0  0
    2.4902   -0.0451   -1.7268 H   0  0  0  0  0  0  0  0  0  0  0  0
    3.9714   -0.6793   -2.4922 H   0  0  0  0  0  0  0  0  0  0  0  0
    3.8785    3.4775   -2.1793 H   0  0  0  0  0  0  0  0  0  0  0  0
    2.4415    2.6666   -1.5006 H   0  0  0  0  0  0  0  0  0  0  0  0
    3.8916    3.2825    0.3692 H   0  0  0  0  0  0  0  0  0  0  0  0
    5.3109    2.5122   -0.4167 H   0  0  0  0  0  0  0  0  0  0  0  0
    5.7103    1.5982   -4.2945 H   0  0  0  0  0  0  0  0  0  0  0  0
    5.4163    1.7814   -6.7783 H   0  0  0  0  0  0  0  0  0  0  0  0
    3.1073    1.7917   -7.7423 H   0  0  0  0  0  0  0  0  0  0  0  0
    1.1332    1.6229   -6.2219 H   0  0  0  0  0  0  0  0  0  0  0  0
   -1.3339   -0.2104   -0.0641 H   0  0  0  0  0  0  0  0  0  0  0  0
  1 30  1  0  0  0  0
  1 32  1  0  0  0  0
  2  1  1  0  0  0  0
  2  3  2  0  0  0  0
  3 33  1  0  0  0  0
  4  3  1  0  0  0  0
  4 34  1  0  0  0  0
  5  4  2  0  0  0  0
  6  7  2  0  0  0  0
  6  5  1  0  0  0  0
  7  2  1  0  0  0  0
  8  9  2  0  0  0  0
  8  6  1  0  0  0  0
 10  9  1  0  0  0  0
 11 12  1  0  0  0  0
 11 10  2  0  0  0  0
 12  8  1  0  0  0  0
 13 12  1  0  0  0  0
 13 38  1  0  0  0  0
 14 13  1  0  0  0  0
 14 15  2  0  0  0  0
 16 14  1  0  0  0  0
 17 40  1  0  0  0  0
 17 16  1  0  0  0  0
 18 41  1  0  0  0  0
 18 17  1  0  0  0  0
 19 18  1  0  0  0  0
 19 20  1  0  0  0  0
 20 44  1  0  0  0  0
 20 21  1  0  0  0  0
 21 16  1  0  0  0  0
 21 45  1  0  0  0  0
 22 19  1  0  0  0  0
 23 47  1  0  0  0  0
 23 22  2  0  0  0  0
 24 23  1  0  0  0  0
 25 24  2  0  0  0  0
 25 26  1  0  0  0  0
 26 27  2  0  0  0  0
 27 22  1  0  0  0  0
 27 28  1  0  0  0  0
 29 11  1  0  0  0  0
 31  1  1  0  0  0  0
 35  5  1  0  0  0  0
 36  7  1  0  0  0  0
 37 13  1  0  0  0  0
 39 17  1  0  0  0  0
 42 18  1  0  0  0  0
 43 20  1  0  0  0  0
 46 21  1  0  0  0  0
 48 24  1  0  0  0  0
 49 25  1  0  0  0  0
 50 26  1  0  0  0  0
 51 29  1  0  0  0  0
M  END
