75932507.xyz
 OpenBabel08132112143D
C=CCn1c(S)nc2c(c1=O)ccc(c2)C(=O)NC(C1CC2CC1CC2)C
 52 55  0  0  1  0  0  0  0  0999 V2000
    3.9275   -2.0846    1.9390 C   0  0  0  0  0  0  0  0  0  0  0  0
    2.9134   -1.4733    1.3241 C   0  0  0  0  0  0  0  0  0  0  0  0
    2.4981   -0.0572    1.6254 C   0  0  0  0  0  0  0  0  0  0  0  0
    1.2390    0.0000    2.3899 N   0  0  0  0  0  0  0  0  0  0  0  0
   -0.0000    0.0000    1.7827 C   0  0  0  0  0  0  0  0  0  0  0  0
    0.0000    0.0000    0.0000 S   0  0  0  0  0  0  0  0  0  0  0  0
   -1.1311    0.0008    2.4023 N   0  0  0  0  0  0  0  0  0  0  0  0
   -1.1243   -0.0071    3.7811 C   0  0  0  0  0  0  0  0  0  0  0  0
    0.0844   -0.0181    4.5158 C   0  0  1  0  0  0  0  0  0  0  0  0
    1.3645   -0.0214    3.8009 C   0  0  0  0  0  0  0  0  0  0  0  0
    2.4631   -0.0370    4.3263 O   0  0  0  0  0  0  0  0  0  0  0  0
    0.0619   -0.0211    5.9202 C   0  0  0  0  0  0  0  0  0  0  0  0
   -1.1498   -0.0253    6.5936 C   0  0  0  0  0  0  0  0  0  0  0  0
   -2.3654   -0.0288    5.8715 C   0  0  0  0  0  0  0  0  0  0  0  0
   -2.3465   -0.0039    4.4811 C   0  0  0  0  0  0  0  0  0  0  0  0
   -3.7180   -0.0264    6.5403 C   0  0  0  0  0  0  0  0  0  0  0  0
   -4.7130    0.3856    5.9603 O   0  0  0  0  0  0  0  0  0  0  0  0
   -3.7475   -0.5251    7.8087 N   0  0  0  0  0  0  0  0  0  0  0  0
   -4.9615   -0.5973    8.6151 C   0  0  1  0  0  0  0  0  0  0  0  0
   -5.4514   -2.0530    8.7273 C   0  0  2  0  0  0  0  0  0  0  0  0
   -5.6482   -2.7401    7.3355 C   0  0  0  0  0  0  0  0  0  0  0  0
   -7.1023   -3.2487    7.3827 C   0  0  2  0  0  0  0  0  0  0  0  0
   -7.7898   -2.1021    8.1480 C   0  0  0  0  0  0  0  0  0  0  0  0
   -6.8555   -2.2051    9.3703 C   0  0  1  0  0  0  0  0  0  0  0  0
   -7.0392   -3.6846    9.7713 C   0  0  0  0  0  0  0  0  0  0  0  0
   -7.1932   -4.4081    8.3973 C   0  0  0  0  0  0  0  0  0  0  0  0
   -4.7073    0.0588    9.9731 C   0  0  0  0  0  0  0  0  0  0  0  0
    4.5157   -1.5731    2.7067 H   0  0  0  0  0  0  0  0  0  0  0  0
    4.1958   -3.1183    1.7042 H   0  0  0  0  0  0  0  0  0  0  0  0
    2.3156   -2.0064    0.5761 H   0  0  0  0  0  0  0  0  0  0  0  0
    3.2553    0.4386    2.2436 H   0  0  0  0  0  0  0  0  0  0  0  0
    2.3618    0.5302    0.7052 H   0  0  0  0  0  0  0  0  0  0  0  0
   -1.3502    0.0082   -0.0405 H   0  0  0  0  0  0  0  0  0  0  0  0
    1.0144   -0.0106    6.4527 H   0  0  0  0  0  0  0  0  0  0  0  0
   -1.1561    0.0085    7.6849 H   0  0  0  0  0  0  0  0  0  0  0  0
   -3.2844    0.0190    3.9267 H   0  0  0  0  0  0  0  0  0  0  0  0
   -2.9163   -0.9740    8.1735 H   0  0  0  0  0  0  0  0  0  0  0  0
   -5.7074   -0.0140    8.0564 H   0  0  0  0  0  0  0  0  0  0  0  0
   -4.7083   -2.6022    9.3331 H   0  0  0  0  0  0  0  0  0  0  0  0
   -5.5328   -2.0067    6.5250 H   0  0  0  0  0  0  0  0  0  0  0  0
   -4.9259   -3.5511    7.1576 H   0  0  0  0  0  0  0  0  0  0  0  0
   -7.5162   -3.4878    6.3926 H   0  0  0  0  0  0  0  0  0  0  0  0
   -8.8437   -2.3067    8.3948 H   0  0  0  0  0  0  0  0  0  0  0  0
   -7.7316   -1.1359    7.6236 H   0  0  0  0  0  0  0  0  0  0  0  0
   -7.0531   -1.5033   10.1919 H   0  0  0  0  0  0  0  0  0  0  0  0
   -7.9426   -3.8068   10.3885 H   0  0  0  0  0  0  0  0  0  0  0  0
   -6.1886   -4.0596   10.3610 H   0  0  0  0  0  0  0  0  0  0  0  0
   -6.4128   -5.1653    8.2243 H   0  0  0  0  0  0  0  0  0  0  0  0
   -8.1651   -4.9201    8.3236 H   0  0  0  0  0  0  0  0  0  0  0  0
   -3.9361   -0.4932   10.5379 H   0  0  0  0  0  0  0  0  0  0  0  0
   -4.3609    1.0948    9.8426 H   0  0  0  0  0  0  0  0  0  0  0  0
   -5.6183    0.0773   10.5881 H   0  0  0  0  0  0  0  0  0  0  0  0
  1 28  1  0  0  0  0
  2  3  1  0  0  0  0
  2  1  2  0  0  0  0
  3 31  1  0  0  0  0
  3  4  1  0  0  0  0
  4 10  1  0  0  0  0
  5  4  1  0  0  0  0
  5  7  2  0  0  0  0
  6  5  1  0  0  0  0
  7  8  2  0  0  0  0
  8 15  1  0  0  0  0
  9  8  1  1  0  0  0
  9 12  1  0  0  0  0
 10 11  2  0  0  0  0
 10  9  1  0  0  0  0
 12 34  1  0  0  0  0
 12 13  2  0  0  0  0
 13 35  1  0  0  0  0
 14 16  1  0  0  0  0
 14 13  1  0  0  0  0
 15 14  2  0  0  0  0
 16 18  1  0  0  0  0
 17 16  2  0  0  0  0
 18 37  1  0  0  0  0
 18 19  1  0  0  0  0
 19 38  1  6  0  0  0
 19 20  1  0  0  0  0
 19 27  1  0  0  0  0
 20 39  1  0  0  0  0
 20 24  1  1  0  0  0
 21 22  1  0  0  0  0
 21 20  1  0  0  0  0
 22 42  1  6  0  0  0
 22 23  1  0  0  0  0
 22 26  1  0  0  0  0
 23 43  1  0  0  0  0
 23 24  1  0  0  0  0
 24 25  1  0  0  0  0
 24 45  1  1  0  0  0
 25 47  1  0  0  0  0
 25 46  1  0  0  0  0
 26 25  1  0  0  0  0
 27 50  1  0  0  0  0
 27 52  1  0  0  0  0
 29  1  1  0  0  0  0
 30  2  1  0  0  0  0
 32  3  1  0  0  0  0
 33  6  1  0  0  0  0
 36 15  1  0  0  0  0
 40 21  1  0  0  0  0
 41 21  1  0  0  0  0
 44 23  1  0  0  0  0
 48 26  1  0  0  0  0
 49 26  1  0  0  0  0
 51 27  1  0  0  0  0
M  RAD  1   9   2
M  END
