75939604.xyz
 OpenBabel08132112143D
O=C(Cn1c(S)nnc1c1cccs1)NCCN(c1ccccc1)C
 44 46  0  0  0  0  0  0  0  0999 V2000
   -4.4697   -1.2290    2.0014 O   0  0  0  0  0  0  0  0  0  0  0  0
   -3.2556   -1.2025    2.1129 C   0  0  0  0  0  0  0  0  0  0  0  0
   -2.5103    0.1352    2.0664 C   0  0  0  0  0  0  0  0  0  0  0  0
   -1.1464    0.0908    2.5373 N   0  0  0  0  0  0  0  0  0  0  0  0
    0.0000    0.0000    1.7610 C   0  0  0  0  0  0  0  0  0  0  0  0
    0.0000    0.0000    0.0000 S   0  0  0  0  0  0  0  0  0  0  0  0
    1.0639   -0.0000    2.5295 N   0  0  0  0  0  0  0  0  0  0  0  0
    0.6455    0.0779    3.8217 N   0  0  0  0  0  0  0  0  0  0  0  0
   -0.6776    0.1184    3.8335 C   0  0  0  0  0  0  0  0  0  0  0  0
   -1.4776    0.1713    5.0415 C   0  0  0  0  0  0  0  0  0  0  0  0
   -2.8293   -0.0391    5.2598 C   0  0  0  0  0  0  0  0  0  0  0  0
   -3.1886    0.0826    6.6322 C   0  0  0  0  0  0  0  0  0  0  0  0
   -2.1142    0.3799    7.4344 C   0  0  0  0  0  0  0  0  0  0  0  0
   -0.6461    0.5137    6.5390 S   0  0  0  0  0  0  0  0  0  0  0  0
   -2.4862   -2.3128    2.2495 N   0  0  0  0  0  0  0  0  0  0  0  0
   -3.0895   -3.6337    2.3058 C   0  0  0  0  0  0  0  0  0  0  0  0
   -3.4860   -4.1495    0.9106 C   0  0  0  0  0  0  0  0  0  0  0  0
   -4.1575   -5.4276    0.9472 N   0  0  0  0  0  0  0  0  0  0  0  0
   -3.4452   -6.6140    1.0629 C   0  0  0  0  0  0  0  0  0  0  0  0
   -4.1172   -7.8527    1.1961 C   0  0  0  0  0  0  0  0  0  0  0  0
   -3.4056   -9.0482    1.2919 C   0  0  0  0  0  0  0  0  0  0  0  0
   -2.0095   -9.0640    1.2651 C   0  0  0  0  0  0  0  0  0  0  0  0
   -1.3344   -7.8471    1.1407 C   0  0  0  0  0  0  0  0  0  0  0  0
   -2.0293   -6.6427    1.0446 C   0  0  0  0  0  0  0  0  0  0  0  0
   -5.5972   -5.4303    1.1077 C   0  0  0  0  0  0  0  0  0  0  0  0
   -3.0900    0.8674    2.6426 H   0  0  0  0  0  0  0  0  0  0  0  0
   -2.4947    0.4725    1.0188 H   0  0  0  0  0  0  0  0  0  0  0  0
   -0.6458   -1.1842   -0.1514 H   0  0  0  0  0  0  0  0  0  0  0  0
   -3.5534   -0.2919    4.4877 H   0  0  0  0  0  0  0  0  0  0  0  0
   -4.2048   -0.0493    7.0048 H   0  0  0  0  0  0  0  0  0  0  0  0
   -2.1060    0.5265    8.5135 H   0  0  0  0  0  0  0  0  0  0  0  0
   -1.4932   -2.2115    2.4193 H   0  0  0  0  0  0  0  0  0  0  0  0
   -3.9934   -3.5808    2.9319 H   0  0  0  0  0  0  0  0  0  0  0  0
   -2.3828   -4.3241    2.7867 H   0  0  0  0  0  0  0  0  0  0  0  0
   -4.1600   -3.4107    0.4547 H   0  0  0  0  0  0  0  0  0  0  0  0
   -2.5940   -4.2006    0.2662 H   0  0  0  0  0  0  0  0  0  0  0  0
   -5.2051   -7.8875    1.2194 H   0  0  0  0  0  0  0  0  0  0  0  0
   -3.9607   -9.9848    1.3904 H   0  0  0  0  0  0  0  0  0  0  0  0
   -1.4587  -10.0032    1.3433 H   0  0  0  0  0  0  0  0  0  0  0  0
   -0.2415   -7.8277    1.1215 H   0  0  0  0  0  0  0  0  0  0  0  0
   -1.4577   -5.7198    0.9547 H   0  0  0  0  0  0  0  0  0  0  0  0
   -5.9134   -5.8429    2.0839 H   0  0  0  0  0  0  0  0  0  0  0  0
   -6.0969   -6.0211    0.3195 H   0  0  0  0  0  0  0  0  0  0  0  0
   -5.9674   -4.3989    1.0435 H   0  0  0  0  0  0  0  0  0  0  0  0
  1  2  2  0  0  0  0
  2 15  1  0  0  0  0
  3  2  1  0  0  0  0
  3  4  1  0  0  0  0
  3 26  1  0  0  0  0
  4  9  1  0  0  0  0
  5  7  2  0  0  0  0
  5  4  1  0  0  0  0
  6  5  1  0  0  0  0
  7  8  1  0  0  0  0
  8  9  2  0  0  0  0
  9 10  1  0  0  0  0
 10 11  2  0  0  0  0
 10 14  1  0  0  0  0
 11 12  1  0  0  0  0
 12 30  1  0  0  0  0
 12 13  2  0  0  0  0
 13 31  1  0  0  0  0
 14 13  1  0  0  0  0
 15 16  1  0  0  0  0
 15 32  1  0  0  0  0
 16 34  1  0  0  0  0
 16 33  1  0  0  0  0
 17 18  1  0  0  0  0
 17 16  1  0  0  0  0
 18 19  1  0  0  0  0
 18 25  1  0  0  0  0
 19 20  1  0  0  0  0
 20 37  1  0  0  0  0
 20 21  2  0  0  0  0
 21 38  1  0  0  0  0
 22 21  1  0  0  0  0
 22 39  1  0  0  0  0
 23 22  2  0  0  0  0
 24 19  2  0  0  0  0
 24 23  1  0  0  0  0
 25 42  1  0  0  0  0
 27  3  1  0  0  0  0
 28  6  1  0  0  0  0
 29 11  1  0  0  0  0
 35 17  1  0  0  0  0
 36 17  1  0  0  0  0
 40 23  1  0  0  0  0
 41 24  1  0  0  0  0
 43 25  1  0  0  0  0
 44 25  1  0  0  0  0
M  END
