75938020.xyz
 OpenBabel08132112143D
Cc1ccc(cc1)c1nnc(n1CC(=O)Nc1scc(n1)C)S
 38 40  0  0  0  0  0  0  0  0999 V2000
   -3.7244   -0.3064    8.7868 C   0  0  0  0  0  0  0  0  0  0  0  0
   -2.9678   -0.2031    7.4883 C   0  0  0  0  0  0  0  0  0  0  0  0
   -1.6639   -0.7175    7.3759 C   0  0  0  0  0  0  0  0  0  0  0  0
   -0.9594   -0.6409    6.1812 C   0  0  0  0  0  0  0  0  0  0  0  0
   -1.5361   -0.0409    5.0428 C   0  0  0  0  0  0  0  0  0  0  0  0
   -2.8313    0.4921    5.1515 C   0  0  0  0  0  0  0  0  0  0  0  0
   -3.5299    0.4023    6.3584 C   0  0  0  0  0  0  0  0  0  0  0  0
   -0.7135    0.0186    3.8280 C   0  0  0  0  0  0  0  0  0  0  0  0
    0.6046    0.0102    3.8335 N   0  0  0  0  0  0  0  0  0  0  0  0
    1.0536   -0.0000    2.5419 N   0  0  0  0  0  0  0  0  0  0  0  0
   -0.0000    0.0000    1.7687 C   0  0  0  0  0  0  0  0  0  0  0  0
   -1.1591    0.0139    2.5089 N   0  0  0  0  0  0  0  0  0  0  0  0
   -2.5146    0.0058    1.9879 C   0  0  0  0  0  0  0  0  0  0  0  0
   -3.1224    1.4104    1.7860 C   0  0  0  0  0  0  0  0  0  0  0  0
   -4.1691    1.7205    2.3045 O   0  0  0  0  0  0  0  0  0  0  0  0
   -2.3571    2.2280    0.9788 N   0  0  0  0  0  0  0  0  0  0  0  0
   -2.5940    3.5632    0.6764 C   0  0  0  0  0  0  0  0  0  0  0  0
   -1.5957    4.3256   -0.5663 S   0  0  0  0  0  0  0  0  0  0  0  0
   -2.4839    5.7949   -0.2862 C   0  0  0  0  0  0  0  0  0  0  0  0
   -3.4353    5.6060    0.6825 C   0  0  0  0  0  0  0  0  0  0  0  0
   -3.4795    4.3343    1.2162 N   0  0  0  0  0  0  0  0  0  0  0  0
   -4.3909    6.6404    1.1895 C   0  0  0  0  0  0  0  0  0  0  0  0
    0.0000    0.0000    0.0000 S   0  0  0  0  0  0  0  0  0  0  0  0
   -3.1472    0.1270    9.6198 H   0  0  0  0  0  0  0  0  0  0  0  0
   -4.6912    0.2147    8.7346 H   0  0  0  0  0  0  0  0  0  0  0  0
   -3.9223   -1.3598    9.0474 H   0  0  0  0  0  0  0  0  0  0  0  0
   -1.1957   -1.1897    8.2442 H   0  0  0  0  0  0  0  0  0  0  0  0
    0.0528   -1.0394    6.1024 H   0  0  0  0  0  0  0  0  0  0  0  0
   -3.3122    1.0083    4.3220 H   0  0  0  0  0  0  0  0  0  0  0  0
   -4.5348    0.8278    6.4182 H   0  0  0  0  0  0  0  0  0  0  0  0
   -3.1718   -0.5316    2.6799 H   0  0  0  0  0  0  0  0  0  0  0  0
   -2.5178   -0.5398    1.0305 H   0  0  0  0  0  0  0  0  0  0  0  0
   -1.5409    1.8132    0.5303 H   0  0  0  0  0  0  0  0  0  0  0  0
   -2.2536    6.7013   -0.8416 H   0  0  0  0  0  0  0  0  0  0  0  0
   -4.2451    7.6049    0.6838 H   0  0  0  0  0  0  0  0  0  0  0  0
   -4.2594    6.7845    2.2739 H   0  0  0  0  0  0  0  0  0  0  0  0
   -5.4304    6.3105    1.0325 H   0  0  0  0  0  0  0  0  0  0  0  0
    1.3007    0.3634   -0.0648 H   0  0  0  0  0  0  0  0  0  0  0  0
  1 26  1  0  0  0  0
  1 24  1  0  0  0  0
  2  1  1  0  0  0  0
  3  2  1  0  0  0  0
  3 27  1  0  0  0  0
  4  3  2  0  0  0  0
  5  6  2  0  0  0  0
  5  4  1  0  0  0  0
  6  7  1  0  0  0  0
  7 30  1  0  0  0  0
  7  2  2  0  0  0  0
  8  9  2  0  0  0  0
  8  5  1  0  0  0  0
 10  9  1  0  0  0  0
 11 12  1  0  0  0  0
 11 10  2  0  0  0  0
 12  8  1  0  0  0  0
 13 12  1  0  0  0  0
 13 31  1  0  0  0  0
 14 13  1  0  0  0  0
 14 15  2  0  0  0  0
 16 14  1  0  0  0  0
 17 16  1  0  0  0  0
 17 21  2  0  0  0  0
 18 19  1  0  0  0  0
 18 17  1  0  0  0  0
 19 20  1  0  0  0  0
 20 22  1  0  0  0  0
 20 21  2  0  0  0  0
 22 36  1  0  0  0  0
 23 11  1  0  0  0  0
 25  1  1  0  0  0  0
 28  4  1  0  0  0  0
 29  6  1  0  0  0  0
 32 13  1  0  0  0  0
 33 16  1  0  0  0  0
 34 19  1  0  0  0  0
 35 22  1  0  0  0  0
 37 22  1  0  0  0  0
 38 23  1  0  0  0  0
M  RAD  1  19   2
M  END
