75937746.xyz
 OpenBabel08132112143D
Cc1cc(nc(n1)C(C)C)N1CCN(CC1)C(=O)CCn1c(S)nnc1c1cccc(c1)C
 64 67  0  0  0  0  0  0  0  0999 V2000
   -7.4205   -4.6630   -5.6272 C   0  0  0  0  0  0  0  0  0  0  0  0
   -7.8182   -4.5984   -4.1791 C   0  0  0  0  0  0  0  0  0  0  0  0
   -6.8799   -4.4094   -3.1692 C   0  0  0  0  0  0  0  0  0  0  0  0
   -7.3634   -4.3649   -1.8382 C   0  0  0  0  0  0  0  0  0  0  0  0
   -8.6742   -4.5029   -1.5937 N   0  0  0  0  0  0  0  0  0  0  0  0
   -9.4968   -4.6775   -2.6315 C   0  0  0  0  0  0  0  0  0  0  0  0
   -9.1308   -4.7331   -3.9132 N   0  0  0  0  0  0  0  0  0  0  0  0
  -10.9728   -4.8231   -2.3167 C   0  0  0  0  0  0  0  0  0  0  0  0
  -11.2237   -6.0553   -1.4375 C   0  0  0  0  0  0  0  0  0  0  0  0
  -11.5163   -3.5459   -1.6621 C   0  0  0  0  0  0  0  0  0  0  0  0
   -6.5264   -4.1835   -0.7684 N   0  0  0  0  0  0  0  0  0  0  0  0
   -7.0318   -4.1095    0.5951 C   0  0  0  0  0  0  0  0  0  0  0  0
   -6.5320   -2.8496    1.2896 C   0  0  0  0  0  0  0  0  0  0  0  0
   -5.0747   -2.7222    1.1365 N   0  0  0  0  0  0  0  0  0  0  0  0
   -4.4062   -3.7690    0.3796 C   0  0  0  0  0  0  0  0  0  0  0  0
   -5.0984   -3.9905   -0.9635 C   0  0  0  0  0  0  0  0  0  0  0  0
   -4.4780   -1.6692    1.7658 C   0  0  0  0  0  0  0  0  0  0  0  0
   -5.1407   -0.8856    2.4373 O   0  0  0  0  0  0  0  0  0  0  0  0
   -2.9620   -1.5166    1.6604 C   0  0  0  0  0  0  0  0  0  0  0  0
   -2.5104   -0.0970    2.0199 C   0  0  0  0  0  0  0  0  0  0  0  0
   -1.1494   -0.0725    2.5300 N   0  0  0  0  0  0  0  0  0  0  0  0
   -0.0000   -0.0000    1.7651 C   0  0  0  0  0  0  0  0  0  0  0  0
    0.0000    0.0000    0.0000 S   0  0  0  0  0  0  0  0  0  0  0  0
    1.0610   -0.0000    2.5393 N   0  0  0  0  0  0  0  0  0  0  0  0
    0.6316   -0.0691    3.8245 N   0  0  0  0  0  0  0  0  0  0  0  0
   -0.6938   -0.1211    3.8295 C   0  0  0  0  0  0  0  0  0  0  0  0
   -1.4901   -0.1855    5.0649 C   0  0  0  0  0  0  0  0  0  0  0  0
   -0.8633    0.2209    6.2583 C   0  0  0  0  0  0  0  0  0  0  0  0
   -1.5634    0.1807    7.4612 C   0  0  0  0  0  0  0  0  0  0  0  0
   -2.8901   -0.2585    7.4980 C   0  0  0  0  0  0  0  0  0  0  0  0
   -3.5321   -0.6808    6.3264 C   0  0  0  0  0  0  0  0  0  0  0  0
   -2.8171   -0.6446    5.1220 C   0  0  0  0  0  0  0  0  0  0  0  0
   -4.9542   -1.1842    6.3435 C   0  0  0  0  0  0  0  0  0  0  0  0
   -7.9447   -3.8758   -6.1917 H   0  0  0  0  0  0  0  0  0  0  0  0
   -6.3369   -4.5475   -5.7691 H   0  0  0  0  0  0  0  0  0  0  0  0
   -7.7409   -5.6250   -6.0576 H   0  0  0  0  0  0  0  0  0  0  0  0
   -5.8244   -4.3038   -3.4121 H   0  0  0  0  0  0  0  0  0  0  0  0
  -11.4686   -4.9668   -3.2884 H   0  0  0  0  0  0  0  0  0  0  0  0
  -10.6976   -5.9542   -0.4757 H   0  0  0  0  0  0  0  0  0  0  0  0
  -10.8645   -6.9745   -1.9265 H   0  0  0  0  0  0  0  0  0  0  0  0
  -12.2998   -6.1747   -1.2344 H   0  0  0  0  0  0  0  0  0  0  0  0
  -12.5961   -3.6397   -1.4653 H   0  0  0  0  0  0  0  0  0  0  0  0
  -11.0051   -3.3564   -0.7054 H   0  0  0  0  0  0  0  0  0  0  0  0
  -11.3624   -2.6685   -2.3097 H   0  0  0  0  0  0  0  0  0  0  0  0
   -8.1257   -4.1027    0.5422 H   0  0  0  0  0  0  0  0  0  0  0  0
   -6.7389   -5.0098    1.1655 H   0  0  0  0  0  0  0  0  0  0  0  0
   -7.0157   -1.9566    0.8622 H   0  0  0  0  0  0  0  0  0  0  0  0
   -6.7927   -2.8671    2.3602 H   0  0  0  0  0  0  0  0  0  0  0  0
   -3.3617   -3.4980    0.1971 H   0  0  0  0  0  0  0  0  0  0  0  0
   -4.3904   -4.7104    0.9570 H   0  0  0  0  0  0  0  0  0  0  0  0
   -4.9154   -3.1140   -1.6124 H   0  0  0  0  0  0  0  0  0  0  0  0
   -4.6422   -4.8655   -1.4626 H   0  0  0  0  0  0  0  0  0  0  0  0
   -2.5073   -2.2354    2.3643 H   0  0  0  0  0  0  0  0  0  0  0  0
   -2.5790   -1.7780    0.6641 H   0  0  0  0  0  0  0  0  0  0  0  0
   -3.1840    0.3409    2.7624 H   0  0  0  0  0  0  0  0  0  0  0  0
   -2.5437    0.5419    1.1275 H   0  0  0  0  0  0  0  0  0  0  0  0
   -0.0547    1.3449   -0.1680 H   0  0  0  0  0  0  0  0  0  0  0  0
    0.1702    0.5651    6.2143 H   0  0  0  0  0  0  0  0  0  0  0  0
   -1.0724    0.5044    8.3822 H   0  0  0  0  0  0  0  0  0  0  0  0
   -3.4334   -0.2729    8.4469 H   0  0  0  0  0  0  0  0  0  0  0  0
   -3.3367   -0.9874    4.2319 H   0  0  0  0  0  0  0  0  0  0  0  0
   -4.9976   -2.2361    6.6760 H   0  0  0  0  0  0  0  0  0  0  0  0
   -5.5775   -0.6004    7.0383 H   0  0  0  0  0  0  0  0  0  0  0  0
   -5.4059   -1.1293    5.3418 H   0  0  0  0  0  0  0  0  0  0  0  0
  1  2  1  0  0  0  0
  2  7  2  0  0  0  0
  2  3  1  0  0  0  0
  3  4  1  0  0  0  0
  4  5  2  0  0  0  0
  4 11  1  0  0  0  0
  6  8  1  0  0  0  0
  6  5  2  0  0  0  0
  7  6  2  0  0  0  0
  8 10  1  0  0  0  0
  8  9  1  0  0  0  0
  9 41  1  0  0  0  0
  9 39  1  0  0  0  0
 10 42  1  0  0  0  0
 10 43  1  0  0  0  0
 11 12  1  0  0  0  0
 12 46  1  0  0  0  0
 12 13  1  0  0  0  0
 13 48  1  0  0  0  0
 14 13  1  0  0  0  0
 14 17  1  0  0  0  0
 15 50  1  0  0  0  0
 15 14  1  0  0  0  0
 16 11  1  0  0  0  0
 16 15  1  0  0  0  0
 17 18  2  0  0  0  0
 19 17  1  0  0  0  0
 19 20  1  0  0  0  0
 19 53  1  0  0  0  0
 20 21  1  0  0  0  0
 20 55  1  0  0  0  0
 21 26  1  0  0  0  0
 22 21  1  0  0  0  0
 22 24  2  0  0  0  0
 23 22  1  0  0  0  0
 24 25  1  0  0  0  0
 25 26  2  0  0  0  0
 26 27  1  0  0  0  0
 27 32  2  0  0  0  0
 27 28  1  0  0  0  0
 28 29  2  0  0  0  0
 29 30  1  0  0  0  0
 29 59  1  0  0  0  0
 30 60  1  0  0  0  0
 31 33  1  0  0  0  0
 31 30  2  0  0  0  0
 32 31  1  0  0  0  0
 33 62  1  0  0  0  0
 33 63  1  0  0  0  0
 34  1  1  0  0  0  0
 35  1  1  0  0  0  0
 36  1  1  0  0  0  0
 37  3  1  0  0  0  0
 38  8  1  0  0  0  0
 40  9  1  0  0  0  0
 44 10  1  0  0  0  0
 45 12  1  0  0  0  0
 47 13  1  0  0  0  0
 49 15  1  0  0  0  0
 51 16  1  0  0  0  0
 52 16  1  0  0  0  0
 54 19  1  0  0  0  0
 56 20  1  0  0  0  0
 57 23  1  0  0  0  0
 58 28  1  0  0  0  0
 61 32  1  0  0  0  0
 64 33  1  0  0  0  0
M  RAD  1   3   2
M  END
