75937274.xyz
 OpenBabel08132112143D
COc1ccc(c(c1)OC)C1CCCN1Cn1nc(nc1S)c1cc(Cl)ccc1OC
 56 59  0  0  1  0  0  0  0  0999 V2000
   -6.8167   -6.9879   -0.4244 C   0  0  0  0  0  0  0  0  0  0  0  0
   -6.3511   -5.7597   -0.9312 O   0  0  0  0  0  0  0  0  0  0  0  0
   -5.3898   -5.0914   -0.2430 C   0  0  0  0  0  0  0  0  0  0  0  0
   -4.8128   -5.5357    0.9489 C   0  0  0  0  0  0  0  0  0  0  0  0
   -3.8239   -4.7478    1.5583 C   0  0  0  0  0  0  0  0  0  0  0  0
   -3.3962   -3.5384    1.0229 C   0  0  0  0  0  0  0  0  0  0  0  0
   -4.0009   -3.1052   -0.1840 C   0  0  0  0  0  0  0  0  0  0  0  0
   -4.9789   -3.8722   -0.8128 C   0  0  0  0  0  0  0  0  0  0  0  0
   -3.5558   -1.9155   -0.6725 O   0  0  0  0  0  0  0  0  0  0  0  0
   -4.0684   -1.4386   -1.8944 C   0  0  0  0  0  0  0  0  0  0  0  0
   -2.3757   -2.6229    1.6691 C   0  0  2  0  0  0  0  0  0  0  0  0
   -1.5248   -3.2432    2.7995 C   0  0  0  0  0  0  0  0  0  0  0  0
   -2.2894   -2.9311    4.1071 C   0  0  0  0  0  0  0  0  0  0  0  0
   -3.3793   -1.9089    3.6876 C   0  0  0  0  0  0  0  0  0  0  0  0
   -3.0744   -1.4935    2.3153 N   0  0  0  0  0  0  0  0  0  0  0  0
   -2.5437   -0.1993    2.0855 C   0  0  0  0  0  0  0  0  0  0  0  0
   -1.1370   -0.0019    2.5053 N   0  0  0  0  0  0  0  0  0  0  0  0
   -0.8080   -0.0218    3.8169 N   0  0  0  0  0  0  0  0  0  0  0  0
    0.5198   -0.0265    3.8093 C   0  0  0  0  0  0  0  0  0  0  0  0
    1.0595    0.0000    2.5478 N   0  0  0  0  0  0  0  0  0  0  0  0
   -0.0000   -0.0000    1.7618 C   0  0  0  0  0  0  0  0  0  0  0  0
    0.0000    0.0000    0.0000 S   0  0  0  0  0  0  0  0  0  0  0  0
    1.3645   -0.0484    5.0124 C   0  0  0  0  0  0  0  0  0  0  0  0
    2.7084    0.3418    4.8805 C   0  0  0  0  0  0  0  0  0  0  0  0
    3.5628    0.3203    5.9790 C   0  0  0  0  0  0  0  0  0  0  0  0
    5.2279    0.8224    5.7871 Cl  0  0  0  0  0  0  0  0  0  0  0  0
    3.1098   -0.1022    7.2318 C   0  0  0  0  0  0  0  0  0  0  0  0
    1.7833   -0.5079    7.3643 C   0  0  0  0  0  0  0  0  0  0  0  0
    0.9057   -0.4889    6.2740 C   0  0  0  0  0  0  0  0  0  0  0  0
   -0.3620   -0.9676    6.4493 O   0  0  0  0  0  0  0  0  0  0  0  0
   -1.3374   -0.0225    6.8621 C   0  0  0  0  0  0  0  0  0  0  0  0
   -7.2742   -6.8727    0.5749 H   0  0  0  0  0  0  0  0  0  0  0  0
   -7.5799   -7.3493   -1.1265 H   0  0  0  0  0  0  0  0  0  0  0  0
   -6.0075   -7.7374   -0.3568 H   0  0  0  0  0  0  0  0  0  0  0  0
   -5.1115   -6.4751    1.4112 H   0  0  0  0  0  0  0  0  0  0  0  0
   -3.3787   -5.1061    2.4880 H   0  0  0  0  0  0  0  0  0  0  0  0
   -5.4545   -3.5662   -1.7427 H   0  0  0  0  0  0  0  0  0  0  0  0
   -3.8727   -2.1428   -2.7224 H   0  0  0  0  0  0  0  0  0  0  0  0
   -5.1557   -1.2537   -1.8367 H   0  0  0  0  0  0  0  0  0  0  0  0
   -3.5539   -0.4908   -2.1014 H   0  0  0  0  0  0  0  0  0  0  0  0
   -1.7371   -2.2285    0.8677 H   0  0  0  0  0  0  0  0  0  0  0  0
   -0.5442   -2.7454    2.8112 H   0  0  0  0  0  0  0  0  0  0  0  0
   -1.3331   -4.3145    2.6481 H   0  0  0  0  0  0  0  0  0  0  0  0
   -1.6151   -2.5031    4.8604 H   0  0  0  0  0  0  0  0  0  0  0  0
   -2.7499   -3.8331    4.5390 H   0  0  0  0  0  0  0  0  0  0  0  0
   -3.4149   -1.0337    4.3501 H   0  0  0  0  0  0  0  0  0  0  0  0
   -4.3738   -2.3870    3.7030 H   0  0  0  0  0  0  0  0  0  0  0  0
   -3.1373    0.5530    2.6229 H   0  0  0  0  0  0  0  0  0  0  0  0
   -2.5720    0.0292    1.0100 H   0  0  0  0  0  0  0  0  0  0  0  0
    1.3500   -0.0055   -0.0585 H   0  0  0  0  0  0  0  0  0  0  0  0
    3.0683    0.6566    3.9018 H   0  0  0  0  0  0  0  0  0  0  0  0
    3.7919   -0.1206    8.0827 H   0  0  0  0  0  0  0  0  0  0  0  0
    1.4046   -0.8689    8.3226 H   0  0  0  0  0  0  0  0  0  0  0  0
   -1.4679    0.7672    6.1062 H   0  0  0  0  0  0  0  0  0  0  0  0
   -2.2830   -0.5711    6.9711 H   0  0  0  0  0  0  0  0  0  0  0  0
   -1.0655    0.4284    7.8336 H   0  0  0  0  0  0  0  0  0  0  0  0
  1 34  1  0  0  0  0
  1 32  1  0  0  0  0
  2  1  1  0  0  0  0
  2  3  1  0  0  0  0
  3  4  1  0  0  0  0
  4 35  1  0  0  0  0
  4  5  2  0  0  0  0
  5 36  1  0  0  0  0
  6  5  1  0  0  0  0
  6 11  1  0  0  0  0
  7  6  2  0  0  0  0
  8  3  2  0  0  0  0
  8  7  1  0  0  0  0
  9  7  1  0  0  0  0
 10 39  1  0  0  0  0
 10  9  1  0  0  0  0
 11 41  1  6  0  0  0
 11 15  1  0  0  0  0
 11 12  1  0  0  0  0
 12 42  1  0  0  0  0
 12 13  1  0  0  0  0
 13 45  1  0  0  0  0
 13 44  1  0  0  0  0
 14 47  1  0  0  0  0
 14 13  1  0  0  0  0
 14 46  1  0  0  0  0
 15 14  1  0  0  0  0
 16 15  1  0  0  0  0
 16 17  1  0  0  0  0
 16 48  1  0  0  0  0
 17 18  1  0  0  0  0
 19 18  2  0  0  0  0
 19 23  1  0  0  0  0
 20 19  2  0  0  0  0
 21 17  1  0  0  0  0
 21 20  2  0  0  0  0
 22 21  1  0  0  0  0
 23 29  1  0  0  0  0
 24 23  2  0  0  0  0
 24 25  1  0  0  0  0
 25 27  2  0  0  0  0
 26 25  1  0  0  0  0
 27 28  1  0  0  0  0
 27 52  1  0  0  0  0
 28 53  1  0  0  0  0
 29 30  1  0  0  0  0
 29 28  2  0  0  0  0
 30 31  1  0  0  0  0
 31 55  1  0  0  0  0
 31 56  1  0  0  0  0
 33  1  1  0  0  0  0
 37  8  1  0  0  0  0
 38 10  1  0  0  0  0
 40 10  1  0  0  0  0
 43 12  1  0  0  0  0
 49 16  1  0  0  0  0
 50 22  1  0  0  0  0
 51 24  1  0  0  0  0
 54 31  1  0  0  0  0
M  END
