75936710.xyz
 OpenBabel08132112143D
CCC(c1ccccc1)CNC(=O)Cn1c(S)nnc1c1ccc(cc1)C
 51 53  0  0  1  0  0  0  0  0999 V2000
   -7.6255   -3.5320    0.3433 C   0  0  0  0  0  0  0  0  0  0  0  0
   -7.6049   -3.2066    1.8366 C   0  0  0  0  0  0  0  0  0  0  0  0
   -6.7037   -2.0151    2.2135 C   0  0  1  0  0  0  0  0  0  0  0  0
   -6.8966   -1.5858    3.6594 C   0  0  0  0  0  0  0  0  0  0  0  0
   -7.2508   -0.2652    3.9735 C   0  0  0  0  0  0  0  0  0  0  0  0
   -7.4231    0.1408    5.3010 C   0  0  0  0  0  0  0  0  0  0  0  0
   -7.2485   -0.7748    6.3400 C   0  0  0  0  0  0  0  0  0  0  0  0
   -6.8867   -2.0932    6.0431 C   0  0  0  0  0  0  0  0  0  0  0  0
   -6.7063   -2.4913    4.7173 C   0  0  0  0  0  0  0  0  0  0  0  0
   -5.2234   -2.3105    1.9267 C   0  0  0  0  0  0  0  0  0  0  0  0
   -4.3969   -1.1551    2.2246 N   0  0  0  0  0  0  0  0  0  0  0  0
   -3.2156   -0.9199    1.6082 C   0  0  0  0  0  0  0  0  0  0  0  0
   -2.7565   -1.6453    0.7351 O   0  0  0  0  0  0  0  0  0  0  0  0
   -2.4853    0.3524    2.0516 C   0  0  0  0  0  0  0  0  0  0  0  0
   -1.1434    0.0918    2.5305 N   0  0  0  0  0  0  0  0  0  0  0  0
    0.0000    0.0000    1.7581 C   0  0  0  0  0  0  0  0  0  0  0  0
    0.0000    0.0000    0.0000 S   0  0  0  0  0  0  0  0  0  0  0  0
    1.0647   -0.0000    2.5240 N   0  0  0  0  0  0  0  0  0  0  0  0
    0.6435    0.0960    3.8235 N   0  0  0  0  0  0  0  0  0  0  0  0
   -0.6711    0.1345    3.8328 C   0  0  0  0  0  0  0  0  0  0  0  0
   -1.5126    0.2256    5.0311 C   0  0  0  0  0  0  0  0  0  0  0  0
   -2.7082   -0.4989    5.1615 C   0  0  0  0  0  0  0  0  0  0  0  0
   -3.4974   -0.3759    6.3052 C   0  0  0  0  0  0  0  0  0  0  0  0
   -3.1093    0.4567    7.3636 C   0  0  0  0  0  0  0  0  0  0  0  0
   -1.8952    1.1542    7.2424 C   0  0  0  0  0  0  0  0  0  0  0  0
   -1.1071    1.0445    6.0996 C   0  0  0  0  0  0  0  0  0  0  0  0
   -3.9513    0.5778    8.6076 C   0  0  0  0  0  0  0  0  0  0  0  0
   -8.3441   -4.3378    0.1286 H   0  0  0  0  0  0  0  0  0  0  0  0
   -7.9235   -2.6528   -0.2515 H   0  0  0  0  0  0  0  0  0  0  0  0
   -6.6429   -3.8648   -0.0253 H   0  0  0  0  0  0  0  0  0  0  0  0
   -7.2909   -4.0978    2.4070 H   0  0  0  0  0  0  0  0  0  0  0  0
   -8.6275   -2.9760    2.1774 H   0  0  0  0  0  0  0  0  0  0  0  0
   -6.9914   -1.1618    1.5752 H   0  0  0  0  0  0  0  0  0  0  0  0
   -7.4037    0.4535    3.1634 H   0  0  0  0  0  0  0  0  0  0  0  0
   -7.7004    1.1743    5.5212 H   0  0  0  0  0  0  0  0  0  0  0  0
   -7.3905   -0.4638    7.3775 H   0  0  0  0  0  0  0  0  0  0  0  0
   -6.7418   -2.8155    6.8501 H   0  0  0  0  0  0  0  0  0  0  0  0
   -6.4202   -3.5240    4.5045 H   0  0  0  0  0  0  0  0  0  0  0  0
   -4.8946   -3.1835    2.5206 H   0  0  0  0  0  0  0  0  0  0  0  0
   -5.0591   -2.5673    0.8719 H   0  0  0  0  0  0  0  0  0  0  0  0
   -4.6742   -0.5688    3.0053 H   0  0  0  0  0  0  0  0  0  0  0  0
   -3.0349    0.8942    2.8320 H   0  0  0  0  0  0  0  0  0  0  0  0
   -2.4059    1.0005    1.1639 H   0  0  0  0  0  0  0  0  0  0  0  0
   -1.0554   -0.8572   -0.0926 H   0  0  0  0  0  0  0  0  0  0  0  0
   -3.0129   -1.1930    4.3786 H   0  0  0  0  0  0  0  0  0  0  0  0
   -4.4278   -0.9423    6.3746 H   0  0  0  0  0  0  0  0  0  0  0  0
   -1.5662    1.8032    8.0587 H   0  0  0  0  0  0  0  0  0  0  0  0
   -0.1680    1.5931    6.0117 H   0  0  0  0  0  0  0  0  0  0  0  0
   -4.9727    0.2073    8.4376 H   0  0  0  0  0  0  0  0  0  0  0  0
   -3.5184   -0.0073    9.4373 H   0  0  0  0  0  0  0  0  0  0  0  0
   -4.0163    1.6226    8.9501 H   0  0  0  0  0  0  0  0  0  0  0  0
  1  2  1  0  0  0  0
  2 32  1  0  0  0  0
  2  3  1  0  0  0  0
  2 31  1  0  0  0  0
  3 33  1  6  0  0  0
  3  4  1  0  0  0  0
  4  5  2  0  0  0  0
  4  9  1  0  0  0  0
  5  6  1  0  0  0  0
  6 35  1  0  0  0  0
  6  7  2  0  0  0  0
  7 36  1  0  0  0  0
  8  7  1  0  0  0  0
  8 37  1  0  0  0  0
  9  8  2  0  0  0  0
 10  3  1  0  0  0  0
 10 11  1  0  0  0  0
 10 39  1  0  0  0  0
 11 41  1  0  0  0  0
 12 14  1  0  0  0  0
 12 11  1  0  0  0  0
 13 12  2  0  0  0  0
 14 15  1  0  0  0  0
 14 42  1  0  0  0  0
 15 20  1  0  0  0  0
 16 18  2  0  0  0  0
 16 15  1  0  0  0  0
 17 16  1  0  0  0  0
 18 19  1  0  0  0  0
 19 20  2  0  0  0  0
 20 21  1  0  0  0  0
 21 22  2  0  0  0  0
 21 26  1  0  0  0  0
 22 23  1  0  0  0  0
 23 46  1  0  0  0  0
 23 24  2  0  0  0  0
 24 27  1  0  0  0  0
 25 24  1  0  0  0  0
 25 47  1  0  0  0  0
 26 25  2  0  0  0  0
 27 51  1  0  0  0  0
 27 50  1  0  0  0  0
 28  1  1  0  0  0  0
 29  1  1  0  0  0  0
 30  1  1  0  0  0  0
 34  5  1  0  0  0  0
 38  9  1  0  0  0  0
 40 10  1  0  0  0  0
 43 14  1  0  0  0  0
 44 17  1  0  0  0  0
 45 22  1  0  0  0  0
 48 26  1  0  0  0  0
 49 27  1  0  0  0  0
M  END
