75933657.xyz
 OpenBabel08132112143D
O=C(CCn1c(S)nnc1c1ccc(cc1)F)NCc1ccc(cc1)F
 42 44  0  0  0  0  0  0  0  0999 V2000
   -5.2658    0.2659    1.1936 O   0  0  0  0  0  0  0  0  0  0  0  0
   -4.6381    1.1687    1.7257 C   0  0  0  0  0  0  0  0  0  0  0  0
   -3.1255    1.2580    1.5963 C   0  0  0  0  0  0  0  0  0  0  0  0
   -2.5142   -0.1075    1.9735 C   0  0  0  0  0  0  0  0  0  0  0  0
   -1.1615   -0.0054    2.4903 N   0  0  0  0  0  0  0  0  0  0  0  0
   -0.0000    0.0000    1.7599 C   0  0  0  0  0  0  0  0  0  0  0  0
    0.0000    0.0000    0.0000 S   0  0  0  0  0  0  0  0  0  0  0  0
    1.0493    0.0000    2.5476 N   0  0  0  0  0  0  0  0  0  0  0  0
    0.5874   -0.0059    3.8363 N   0  0  0  0  0  0  0  0  0  0  0  0
   -0.7284   -0.0008    3.8105 C   0  0  0  0  0  0  0  0  0  0  0  0
   -1.5898   -0.0240    4.9992 C   0  0  0  0  0  0  0  0  0  0  0  0
   -1.1324   -0.6978    6.1480 C   0  0  0  0  0  0  0  0  0  0  0  0
   -1.9068   -0.7437    7.3051 C   0  0  0  0  0  0  0  0  0  0  0  0
   -3.1481   -0.1079    7.3164 C   0  0  0  0  0  0  0  0  0  0  0  0
   -3.6193    0.5865    6.2073 C   0  0  0  0  0  0  0  0  0  0  0  0
   -2.8350    0.6264    5.0563 C   0  0  0  0  0  0  0  0  0  0  0  0
   -3.9069   -0.1646    8.4187 F   0  0  0  0  0  0  0  0  0  0  0  0
   -5.2204    2.1110    2.5219 N   0  0  0  0  0  0  0  0  0  0  0  0
   -6.6199    2.0157    2.9239 C   0  0  0  0  0  0  0  0  0  0  0  0
   -6.8073    1.2412    4.2131 C   0  0  0  0  0  0  0  0  0  0  0  0
   -6.6177   -0.1518    4.2308 C   0  0  0  0  0  0  0  0  0  0  0  0
   -6.7457   -0.8757    5.4153 C   0  0  0  0  0  0  0  0  0  0  0  0
   -7.0707   -0.1996    6.5908 C   0  0  0  0  0  0  0  0  0  0  0  0
   -7.2714    1.1776    6.6058 C   0  0  0  0  0  0  0  0  0  0  0  0
   -7.1339    1.8908    5.4106 C   0  0  0  0  0  0  0  0  0  0  0  0
   -7.1934   -0.8913    7.7294 F   0  0  0  0  0  0  0  0  0  0  0  0
   -2.7038    2.0453    2.2389 H   0  0  0  0  0  0  0  0  0  0  0  0
   -2.8659    1.5166    0.5581 H   0  0  0  0  0  0  0  0  0  0  0  0
   -3.1234   -0.6017    2.7406 H   0  0  0  0  0  0  0  0  0  0  0  0
   -2.5101   -0.7768    1.1022 H   0  0  0  0  0  0  0  0  0  0  0  0
    1.3478   -0.0888   -0.0569 H   0  0  0  0  0  0  0  0  0  0  0  0
   -0.1578   -1.1862    6.1131 H   0  0  0  0  0  0  0  0  0  0  0  0
   -1.5672   -1.2716    8.1979 H   0  0  0  0  0  0  0  0  0  0  0  0
   -4.5860    1.0862    6.2515 H   0  0  0  0  0  0  0  0  0  0  0  0
   -3.2098    1.1883    4.2053 H   0  0  0  0  0  0  0  0  0  0  0  0
   -4.6257    2.7646    3.0166 H   0  0  0  0  0  0  0  0  0  0  0  0
   -7.0279    3.0323    3.0246 H   0  0  0  0  0  0  0  0  0  0  0  0
   -7.1463    1.5158    2.0993 H   0  0  0  0  0  0  0  0  0  0  0  0
   -6.3644   -0.6646    3.3005 H   0  0  0  0  0  0  0  0  0  0  0  0
   -6.5972   -1.9564    5.4451 H   0  0  0  0  0  0  0  0  0  0  0  0
   -7.5246    1.6721    7.5450 H   0  0  0  0  0  0  0  0  0  0  0  0
   -7.2890    2.9733    5.4151 H   0  0  0  0  0  0  0  0  0  0  0  0
  1  2  2  0  0  0  0
  2 18  1  0  0  0  0
  3  2  1  0  0  0  0
  3  4  1  0  0  0  0
  3 27  1  0  0  0  0
  4  5  1  0  0  0  0
  4 29  1  0  0  0  0
  5 10  1  0  0  0  0
  6  5  1  0  0  0  0
  6  8  2  0  0  0  0
  7  6  1  0  0  0  0
  8  9  1  0  0  0  0
 10  9  2  0  0  0  0
 10 11  1  0  0  0  0
 11 16  2  0  0  0  0
 11 12  1  0  0  0  0
 12 13  2  0  0  0  0
 13 14  1  0  0  0  0
 13 33  1  0  0  0  0
 14 17  1  0  0  0  0
 15 34  1  0  0  0  0
 15 14  2  0  0  0  0
 16 15  1  0  0  0  0
 18 19  1  0  0  0  0
 18 36  1  0  0  0  0
 19 37  1  0  0  0  0
 19 20  1  0  0  0  0
 20 21  2  0  0  0  0
 20 25  1  0  0  0  0
 21 22  1  0  0  0  0
 22 40  1  0  0  0  0
 22 23  2  0  0  0  0
 23 24  1  0  0  0  0
 23 26  1  0  0  0  0
 24 41  1  0  0  0  0
 25 42  1  0  0  0  0
 25 24  2  0  0  0  0
 28  3  1  0  0  0  0
 30  4  1  0  0  0  0
 31  7  1  0  0  0  0
 32 12  1  0  0  0  0
 35 16  1  0  0  0  0
 38 19  1  0  0  0  0
 39 21  1  0  0  0  0
M  END
