75939634.xyz
 OpenBabel08132112143D
O=C(CCn1c(S)nnc1c1cccc(c1)C)NCCCOC1CCCCC1
 58 60  0  0  0  0  0  0  0  0999 V2000
   -2.4370    3.3778    3.9188 O   0  0  0  0  0  0  0  0  0  0  0  0
   -2.2764    2.7347    2.8941 C   0  0  0  0  0  0  0  0  0  0  0  0
   -3.1624    1.5190    2.6108 C   0  0  0  0  0  0  0  0  0  0  0  0
   -2.4980    0.2891    1.9781 C   0  0  0  0  0  0  0  0  0  0  0  0
   -1.1605    0.0108    2.4965 N   0  0  0  0  0  0  0  0  0  0  0  0
    0.0000    0.0000    1.7633 C   0  0  0  0  0  0  0  0  0  0  0  0
    0.0000    0.0000    0.0000 S   0  0  0  0  0  0  0  0  0  0  0  0
    1.0493    0.0000    2.5475 N   0  0  0  0  0  0  0  0  0  0  0  0
    0.5916    0.0281    3.8428 N   0  0  0  0  0  0  0  0  0  0  0  0
   -0.7217    0.0264    3.8137 C   0  0  0  0  0  0  0  0  0  0  0  0
   -1.6222    0.0659    4.9746 C   0  0  0  0  0  0  0  0  0  0  0  0
   -2.6798   -0.8506    5.1015 C   0  0  0  0  0  0  0  0  0  0  0  0
   -3.5474   -0.7541    6.1875 C   0  0  0  0  0  0  0  0  0  0  0  0
   -3.3697    0.2530    7.1418 C   0  0  0  0  0  0  0  0  0  0  0  0
   -2.3170    1.1720    7.0339 C   0  0  0  0  0  0  0  0  0  0  0  0
   -1.4426    1.0568    5.9453 C   0  0  0  0  0  0  0  0  0  0  0  0
   -2.1413    2.2942    8.0229 C   0  0  0  0  0  0  0  0  0  0  0  0
   -1.3459    3.0633    1.9506 N   0  0  0  0  0  0  0  0  0  0  0  0
   -0.4563    4.2032    2.1310 C   0  0  0  0  0  0  0  0  0  0  0  0
    1.0275    3.8438    2.2359 C   0  0  0  0  0  0  0  0  0  0  0  0
    1.6887    3.5508    0.8888 C   0  0  0  0  0  0  0  0  0  0  0  0
    3.0817    3.3939    0.9974 O   0  0  0  0  0  0  0  0  0  0  0  0
    3.5359    2.0761    1.3229 C   0  0  0  0  0  0  0  0  0  0  0  0
    3.8450    1.3033    0.0327 C   0  0  0  0  0  0  0  0  0  0  0  0
    5.0102    1.9280   -0.7422 C   0  0  0  0  0  0  0  0  0  0  0  0
    6.2575    2.0627    0.1391 C   0  0  0  0  0  0  0  0  0  0  0  0
    5.9498    2.8474    1.4196 C   0  0  0  0  0  0  0  0  0  0  0  0
    4.7870    2.2137    2.1900 C   0  0  0  0  0  0  0  0  0  0  0  0
   -3.9872    1.8382    1.9510 H   0  0  0  0  0  0  0  0  0  0  0  0
   -3.6110    1.2646    3.5777 H   0  0  0  0  0  0  0  0  0  0  0  0
   -2.3888    0.4193    0.8915 H   0  0  0  0  0  0  0  0  0  0  0  0
   -3.1465   -0.5886    2.1183 H   0  0  0  0  0  0  0  0  0  0  0  0
    1.3433    0.1331   -0.0721 H   0  0  0  0  0  0  0  0  0  0  0  0
   -2.8083   -1.6431    4.3607 H   0  0  0  0  0  0  0  0  0  0  0  0
   -4.3668   -1.4686    6.2963 H   0  0  0  0  0  0  0  0  0  0  0  0
   -4.0635    0.3290    7.9832 H   0  0  0  0  0  0  0  0  0  0  0  0
   -0.6284    1.7721    5.8197 H   0  0  0  0  0  0  0  0  0  0  0  0
   -2.3339    3.2638    7.5342 H   0  0  0  0  0  0  0  0  0  0  0  0
   -2.8297    2.1980    8.8749 H   0  0  0  0  0  0  0  0  0  0  0  0
   -1.1117    2.3260    8.4134 H   0  0  0  0  0  0  0  0  0  0  0  0
   -1.2428    2.4916    1.1203 H   0  0  0  0  0  0  0  0  0  0  0  0
   -0.6119    4.9241    1.3073 H   0  0  0  0  0  0  0  0  0  0  0  0
   -0.7941    4.6879    3.0554 H   0  0  0  0  0  0  0  0  0  0  0  0
    1.5648    4.6965    2.6834 H   0  0  0  0  0  0  0  0  0  0  0  0
    1.1521    2.9888    2.9205 H   0  0  0  0  0  0  0  0  0  0  0  0
    1.2215    2.6686    0.4086 H   0  0  0  0  0  0  0  0  0  0  0  0
    1.5173    4.4058    0.2110 H   0  0  0  0  0  0  0  0  0  0  0  0
    2.7607    1.5371    1.8909 H   0  0  0  0  0  0  0  0  0  0  0  0
    4.0778    0.2570    0.2995 H   0  0  0  0  0  0  0  0  0  0  0  0
    2.9429    1.2791   -0.6047 H   0  0  0  0  0  0  0  0  0  0  0  0
    5.2337    1.3330   -1.6432 H   0  0  0  0  0  0  0  0  0  0  0  0
    4.7011    2.9294   -1.0856 H   0  0  0  0  0  0  0  0  0  0  0  0
    7.0711    2.5489   -0.4248 H   0  0  0  0  0  0  0  0  0  0  0  0
    6.6231    1.0541    0.4088 H   0  0  0  0  0  0  0  0  0  0  0  0
    5.6752    3.8826    1.1563 H   0  0  0  0  0  0  0  0  0  0  0  0
    6.8448    2.9057    2.0609 H   0  0  0  0  0  0  0  0  0  0  0  0
    5.0725    1.2068    2.5414 H   0  0  0  0  0  0  0  0  0  0  0  0
    4.5355    2.8081    3.0825 H   0  0  0  0  0  0  0  0  0  0  0  0
  2  1  2  0  0  0  0
  3  2  1  0  0  0  0
  3 30  1  0  0  0  0
  4 32  1  0  0  0  0
  4  5  1  0  0  0  0
  4  3  1  0  0  0  0
  5 10  1  0  0  0  0
  6  5  1  0  0  0  0
  6  8  2  0  0  0  0
  7  6  1  0  0  0  0
  8  9  1  0  0  0  0
 10  9  2  0  0  0  0
 10 11  1  0  0  0  0
 11 12  2  0  0  0  0
 11 16  1  0  0  0  0
 12 13  1  0  0  0  0
 13 35  1  0  0  0  0
 13 14  2  0  0  0  0
 14 36  1  0  0  0  0
 15 14  1  0  0  0  0
 15 17  1  0  0  0  0
 16 15  2  0  0  0  0
 17 40  1  0  0  0  0
 17 39  1  0  0  0  0
 18 19  1  0  0  0  0
 18  2  1  0  0  0  0
 19 20  1  0  0  0  0
 19 43  1  0  0  0  0
 20 44  1  0  0  0  0
 20 45  1  0  0  0  0
 21 22  1  0  0  0  0
 21 20  1  0  0  0  0
 22 23  1  0  0  0  0
 23 48  1  0  0  0  0
 23 28  1  0  0  0  0
 24 49  1  0  0  0  0
 24 23  1  0  0  0  0
 25 24  1  0  0  0  0
 25 26  1  0  0  0  0
 26 54  1  0  0  0  0
 26 27  1  0  0  0  0
 27 56  1  0  0  0  0
 27 28  1  0  0  0  0
 28 57  1  0  0  0  0
 28 58  1  0  0  0  0
 29  3  1  0  0  0  0
 31  4  1  0  0  0  0
 33  7  1  0  0  0  0
 34 12  1  0  0  0  0
 37 16  1  0  0  0  0
 38 17  1  0  0  0  0
 41 18  1  0  0  0  0
 42 19  1  0  0  0  0
 46 21  1  0  0  0  0
 47 21  1  0  0  0  0
 50 24  1  0  0  0  0
 51 25  1  0  0  0  0
 52 25  1  0  0  0  0
 53 26  1  0  0  0  0
 55 27  1  0  0  0  0
M  END
