75937266.xyz
 OpenBabel08132112143D
COc1ccc(cc1C1CCCN1Cn1nc(nc1S)c1ccc(cc1)C)OC
 55 58  0  0  1  0  0  0  0  0999 V2000
   -4.1548   -1.1188   -1.9660 C   0  0  0  0  0  0  0  0  0  0  0  0
   -3.6337   -1.6677   -0.7812 O   0  0  0  0  0  0  0  0  0  0  0  0
   -4.1063   -2.8738   -0.3477 C   0  0  0  0  0  0  0  0  0  0  0  0
   -5.1189   -3.5921   -0.9806 C   0  0  0  0  0  0  0  0  0  0  0  0
   -5.5514   -4.8250   -0.4641 C   0  0  0  0  0  0  0  0  0  0  0  0
   -4.9597   -5.3392    0.6898 C   0  0  0  0  0  0  0  0  0  0  0  0
   -3.9312   -4.6122    1.3174 C   0  0  0  0  0  0  0  0  0  0  0  0
   -3.4940   -3.3921    0.8201 C   0  0  0  0  0  0  0  0  0  0  0  0
   -2.4324   -2.5413    1.4919 C   0  0  2  0  0  0  0  0  0  0  0  0
   -1.5552   -3.2520    2.5470 C   0  0  0  0  0  0  0  0  0  0  0  0
   -2.2525   -2.9890    3.9030 C   0  0  0  0  0  0  0  0  0  0  0  0
   -3.3646   -1.9576    3.5786 C   0  0  0  0  0  0  0  0  0  0  0  0
   -3.0959   -1.4504    2.2307 N   0  0  0  0  0  0  0  0  0  0  0  0
   -2.5432   -0.1503    2.0822 C   0  0  0  0  0  0  0  0  0  0  0  0
   -1.1367    0.0051    2.5070 N   0  0  0  0  0  0  0  0  0  0  0  0
   -0.8051   -0.0068    3.8206 N   0  0  0  0  0  0  0  0  0  0  0  0
    0.5233   -0.0067    3.8085 C   0  0  0  0  0  0  0  0  0  0  0  0
    1.0613    0.0000    2.5466 N   0  0  0  0  0  0  0  0  0  0  0  0
   -0.0000   -0.0000    1.7632 C   0  0  0  0  0  0  0  0  0  0  0  0
    0.0000    0.0000    0.0000 S   0  0  0  0  0  0  0  0  0  0  0  0
    1.3384   -0.0191    5.0287 C   0  0  0  0  0  0  0  0  0  0  0  0
    2.7373   -0.0374    4.9445 C   0  0  0  0  0  0  0  0  0  0  0  0
    3.5133   -0.0561    6.1042 C   0  0  0  0  0  0  0  0  0  0  0  0
    2.9218   -0.0570    7.3750 C   0  0  0  0  0  0  0  0  0  0  0  0
    1.5178   -0.0373    7.4485 C   0  0  0  0  0  0  0  0  0  0  0  0
    0.7351   -0.0183    6.2984 C   0  0  0  0  0  0  0  0  0  0  0  0
    3.7544   -0.0796    8.6313 C   0  0  0  0  0  0  0  0  0  0  0  0
   -5.2985   -6.5193    1.2791 O   0  0  0  0  0  0  0  0  0  0  0  0
   -6.3202   -7.2910    0.6990 C   0  0  0  0  0  0  0  0  0  0  0  0
   -3.6192   -0.1755   -2.1387 H   0  0  0  0  0  0  0  0  0  0  0  0
   -5.2360   -0.9066   -1.8796 H   0  0  0  0  0  0  0  0  0  0  0  0
   -3.9950   -1.7856   -2.8328 H   0  0  0  0  0  0  0  0  0  0  0  0
   -5.5944   -3.2101   -1.8835 H   0  0  0  0  0  0  0  0  0  0  0  0
   -6.3471   -5.3609   -0.9805 H   0  0  0  0  0  0  0  0  0  0  0  0
   -3.4870   -5.0446    2.2143 H   0  0  0  0  0  0  0  0  0  0  0  0
   -1.8153   -2.1071    0.6953 H   0  0  0  0  0  0  0  0  0  0  0  0
   -0.5576   -2.7895    2.5397 H   0  0  0  0  0  0  0  0  0  0  0  0
   -1.4110   -4.3191    2.3289 H   0  0  0  0  0  0  0  0  0  0  0  0
   -1.5395   -2.5792    4.6309 H   0  0  0  0  0  0  0  0  0  0  0  0
   -2.6816   -3.9063    4.3343 H   0  0  0  0  0  0  0  0  0  0  0  0
   -4.3505   -2.4528    3.5827 H   0  0  0  0  0  0  0  0  0  0  0  0
   -3.3975   -1.1286    4.2980 H   0  0  0  0  0  0  0  0  0  0  0  0
   -3.1237    0.5734    2.6703 H   0  0  0  0  0  0  0  0  0  0  0  0
   -2.5773    0.1445    1.0232 H   0  0  0  0  0  0  0  0  0  0  0  0
    1.3482    0.0691   -0.0567 H   0  0  0  0  0  0  0  0  0  0  0  0
    3.2037   -0.0375    3.9582 H   0  0  0  0  0  0  0  0  0  0  0  0
    4.6035   -0.0705    6.0209 H   0  0  0  0  0  0  0  0  0  0  0  0
    1.0326   -0.0361    8.4288 H   0  0  0  0  0  0  0  0  0  0  0  0
   -0.3540   -0.0004    6.3664 H   0  0  0  0  0  0  0  0  0  0  0  0
    3.5427   -0.9784    9.2346 H   0  0  0  0  0  0  0  0  0  0  0  0
    3.5380    0.7929    9.2701 H   0  0  0  0  0  0  0  0  0  0  0  0
    4.8303   -0.0727    8.4038 H   0  0  0  0  0  0  0  0  0  0  0  0
   -6.0671   -7.6028   -0.3313 H   0  0  0  0  0  0  0  0  0  0  0  0
   -7.2833   -6.7482    0.6738 H   0  0  0  0  0  0  0  0  0  0  0  0
   -6.4339   -8.1874    1.3235 H   0  0  0  0  0  0  0  0  0  0  0  0
  1 31  1  0  0  0  0
  1  2  1  0  0  0  0
  2  3  1  0  0  0  0
  3  8  2  0  0  0  0
  4  5  2  0  0  0  0
  4  3  1  0  0  0  0
  5  6  1  0  0  0  0
  6 28  1  0  0  0  0
  6  7  2  0  0  0  0
  7 35  1  0  0  0  0
  8  7  1  0  0  0  0
  8  9  1  0  0  0  0
  9 36  1  6  0  0  0
  9 13  1  0  0  0  0
  9 10  1  0  0  0  0
 10 11  1  0  0  0  0
 11 40  1  0  0  0  0
 11 39  1  0  0  0  0
 12 41  1  0  0  0  0
 12 11  1  0  0  0  0
 12 42  1  0  0  0  0
 13 12  1  0  0  0  0
 14 13  1  0  0  0  0
 14 15  1  0  0  0  0
 14 43  1  0  0  0  0
 15 16  1  0  0  0  0
 17 16  2  0  0  0  0
 17 21  1  0  0  0  0
 18 17  2  0  0  0  0
 19 15  1  0  0  0  0
 19 18  2  0  0  0  0
 20 19  1  0  0  0  0
 21 26  1  0  0  0  0
 22 21  2  0  0  0  0
 22 23  1  0  0  0  0
 23 24  2  0  0  0  0
 24 25  1  0  0  0  0
 24 27  1  0  0  0  0
 25 48  1  0  0  0  0
 26 49  1  0  0  0  0
 26 25  2  0  0  0  0
 27 50  1  0  0  0  0
 27 51  1  0  0  0  0
 29 28  1  0  0  0  0
 29 55  1  0  0  0  0
 30  1  1  0  0  0  0
 32  1  1  0  0  0  0
 33  4  1  0  0  0  0
 34  5  1  0  0  0  0
 37 10  1  0  0  0  0
 38 10  1  0  0  0  0
 44 14  1  0  0  0  0
 45 20  1  0  0  0  0
 46 22  1  0  0  0  0
 47 23  1  0  0  0  0
 52 27  1  0  0  0  0
 53 29  1  0  0  0  0
 54 29  1  0  0  0  0
M  END
