75936112.xyz
 OpenBabel08132112143D
Cc1cccc(c1)c1nnc(n1CC(=O)N1CCN(CC1)c1ccc(cc1)C(=O)C)S
 56 59  0  0  0  0  0  0  0  0999 V2000
    1.5710    1.5543    8.4794 C   0  0  0  0  0  0  0  0  0  0  0  0
    1.9929    0.7489    7.2765 C   0  0  0  0  0  0  0  0  0  0  0  0
    3.1768   -0.0086    7.3036 C   0  0  0  0  0  0  0  0  0  0  0  0
    3.5592   -0.7773    6.2046 C   0  0  0  0  0  0  0  0  0  0  0  0
    2.7768   -0.8017    5.0470 C   0  0  0  0  0  0  0  0  0  0  0  0
    1.6044   -0.0296    4.9927 C   0  0  0  0  0  0  0  0  0  0  0  0
    1.2196    0.7291    6.1125 C   0  0  0  0  0  0  0  0  0  0  0  0
    0.7323   -0.0227    3.8117 C   0  0  0  0  0  0  0  0  0  0  0  0
   -0.5829   -0.0091    3.8385 N   0  0  0  0  0  0  0  0  0  0  0  0
   -1.0468   -0.0028    2.5481 N   0  0  0  0  0  0  0  0  0  0  0  0
   -0.0000    0.0000    1.7625 C   0  0  0  0  0  0  0  0  0  0  0  0
    1.1630    0.0000    2.4927 N   0  0  0  0  0  0  0  0  0  0  0  0
    2.4953    0.1577    1.9502 C   0  0  0  0  0  0  0  0  0  0  0  0
    3.0219   -1.1637    1.3713 C   0  0  0  0  0  0  0  0  0  0  0  0
    2.9565   -2.1783    2.0484 O   0  0  0  0  0  0  0  0  0  0  0  0
    3.5758   -1.1487    0.1252 N   0  0  0  0  0  0  0  0  0  0  0  0
    4.1601   -2.3936   -0.3741 C   0  0  0  0  0  0  0  0  0  0  0  0
    5.3729   -2.1137   -1.2498 C   0  0  0  0  0  0  0  0  0  0  0  0
    5.0139   -1.2579   -2.3725 N   0  0  0  0  0  0  0  0  0  0  0  0
    3.8279   -0.4368   -2.2161 C   0  0  0  0  0  0  0  0  0  0  0  0
    3.6501    0.0087   -0.7674 C   0  0  0  0  0  0  0  0  0  0  0  0
    5.7419   -1.2694   -3.5447 C   0  0  0  0  0  0  0  0  0  0  0  0
    7.0270   -1.8681   -3.5982 C   0  0  0  0  0  0  0  0  0  0  0  0
    7.7571   -1.8763   -4.7762 C   0  0  0  0  0  0  0  0  0  0  0  0
    7.2606   -1.2947   -5.9562 C   0  0  0  0  0  0  0  0  0  0  0  0
    5.9878   -0.7031   -5.9060 C   0  0  0  0  0  0  0  0  0  0  0  0
    5.2386   -0.6899   -4.7349 C   0  0  0  0  0  0  0  0  0  0  0  0
    8.1045   -1.3383   -7.1838 C   0  0  0  0  0  0  0  0  0  0  0  0
    9.2018   -1.8677   -7.1734 O   0  0  0  0  0  0  0  0  0  0  0  0
    7.5635   -0.7044   -8.4539 C   0  0  0  0  0  0  0  0  0  0  0  0
    0.0000    0.0000    0.0000 S   0  0  0  0  0  0  0  0  0  0  0  0
    2.3757    2.2306    8.8109 H   0  0  0  0  0  0  0  0  0  0  0  0
    1.3320    0.8959    9.3314 H   0  0  0  0  0  0  0  0  0  0  0  0
    0.6804    2.1623    8.2658 H   0  0  0  0  0  0  0  0  0  0  0  0
    3.7982   -0.0012    8.2036 H   0  0  0  0  0  0  0  0  0  0  0  0
    4.4693   -1.3803    6.2526 H   0  0  0  0  0  0  0  0  0  0  0  0
    3.0431   -1.4483    4.2088 H   0  0  0  0  0  0  0  0  0  0  0  0
    0.2932    1.3040    6.0561 H   0  0  0  0  0  0  0  0  0  0  0  0
    2.4849    0.9861    1.2312 H   0  0  0  0  0  0  0  0  0  0  0  0
    3.1684    0.4417    2.7712 H   0  0  0  0  0  0  0  0  0  0  0  0
    4.4400   -3.0063    0.4917 H   0  0  0  0  0  0  0  0  0  0  0  0
    3.4066   -2.9654   -0.9437 H   0  0  0  0  0  0  0  0  0  0  0  0
    5.7489   -3.0770   -1.6274 H   0  0  0  0  0  0  0  0  0  0  0  0
    6.1818   -1.6685   -0.6375 H   0  0  0  0  0  0  0  0  0  0  0  0
    2.9103   -0.9548   -2.5583 H   0  0  0  0  0  0  0  0  0  0  0  0
    3.9303    0.4715   -2.8265 H   0  0  0  0  0  0  0  0  0  0  0  0
    2.7242    0.5962   -0.7125 H   0  0  0  0  0  0  0  0  0  0  0  0
    4.4915    0.6681   -0.4873 H   0  0  0  0  0  0  0  0  0  0  0  0
    7.4655   -2.3075   -2.7028 H   0  0  0  0  0  0  0  0  0  0  0  0
    8.7494   -2.3301   -4.8120 H   0  0  0  0  0  0  0  0  0  0  0  0
    5.5558   -0.2503   -6.8003 H   0  0  0  0  0  0  0  0  0  0  0  0
    4.2425   -0.2493   -4.7552 H   0  0  0  0  0  0  0  0  0  0  0  0
    8.3063   -0.8253   -9.2521 H   0  0  0  0  0  0  0  0  0  0  0  0
    6.6171   -1.1789   -8.7592 H   0  0  0  0  0  0  0  0  0  0  0  0
    7.3582    0.3677   -8.3035 H   0  0  0  0  0  0  0  0  0  0  0  0
   -1.3268    0.2493   -0.0680 H   0  0  0  0  0  0  0  0  0  0  0  0
  1 32  1  0  0  0  0
  1 33  1  0  0  0  0
  2  3  1  0  0  0  0
  2  1  1  0  0  0  0
  3 35  1  0  0  0  0
  4 36  1  0  0  0  0
  4  3  2  0  0  0  0
  5  4  1  0  0  0  0
  6  5  2  0  0  0  0
  6  7  1  0  0  0  0
  7  2  2  0  0  0  0
  8  9  2  0  0  0  0
  8  6  1  0  0  0  0
 10  9  1  0  0  0  0
 11 12  1  0  0  0  0
 11 10  2  0  0  0  0
 12  8  1  0  0  0  0
 13 12  1  0  0  0  0
 13 40  1  0  0  0  0
 14 13  1  0  0  0  0
 14 15  2  0  0  0  0
 16 14  1  0  0  0  0
 17 16  1  0  0  0  0
 17 41  1  0  0  0  0
 18 44  1  0  0  0  0
 18 17  1  0  0  0  0
 19 20  1  0  0  0  0
 19 18  1  0  0  0  0
 20 21  1  0  0  0  0
 21 47  1  0  0  0  0
 21 48  1  0  0  0  0
 21 16  1  0  0  0  0
 22 19  1  0  0  0  0
 23 22  1  0  0  0  0
 23 49  1  0  0  0  0
 24 23  2  0  0  0  0
 25 26  2  0  0  0  0
 25 24  1  0  0  0  0
 26 27  1  0  0  0  0
 27 22  2  0  0  0  0
 28 29  2  0  0  0  0
 28 25  1  0  0  0  0
 30 55  1  0  0  0  0
 30 28  1  0  0  0  0
 31 11  1  0  0  0  0
 34  1  1  0  0  0  0
 37  5  1  0  0  0  0
 38  7  1  0  0  0  0
 39 13  1  0  0  0  0
 42 17  1  0  0  0  0
 43 18  1  0  0  0  0
 45 20  1  0  0  0  0
 46 20  1  0  0  0  0
 50 24  1  0  0  0  0
 51 26  1  0  0  0  0
 52 27  1  0  0  0  0
 53 30  1  0  0  0  0
 54 30  1  0  0  0  0
 56 31  1  0  0  0  0
M  END
