75941800.xyz
 OpenBabel08132112143D
CCc1ccc(cc1)c1nn(c(n1)S)CN1CCN(CC1)C1CCS(=O)(=O)C1
 55 58  0  0  1  0  0  0  0  0999 V2000
   -4.0188   -1.4825    9.0969 C   0  0  0  0  0  0  0  0  0  0  0  0
   -3.7511   -0.0452    8.6287 C   0  0  0  0  0  0  0  0  0  0  0  0
   -2.9085    0.0087    7.3765 C   0  0  0  0  0  0  0  0  0  0  0  0
   -1.5061    0.0239    7.4511 C   0  0  0  0  0  0  0  0  0  0  0  0
   -0.7219    0.0220    6.3004 C   0  0  0  0  0  0  0  0  0  0  0  0
   -1.3257    0.0031    5.0325 C   0  0  0  0  0  0  0  0  0  0  0  0
   -2.7260   -0.0119    4.9468 C   0  0  0  0  0  0  0  0  0  0  0  0
   -3.5015   -0.0096    6.1053 C   0  0  0  0  0  0  0  0  0  0  0  0
   -0.5108    0.0046    3.8119 C   0  0  0  0  0  0  0  0  0  0  0  0
    0.8155    0.0064    3.8220 N   0  0  0  0  0  0  0  0  0  0  0  0
    1.1408    0.0000    2.5070 N   0  0  0  0  0  0  0  0  0  0  0  0
   -0.0000    0.0000    1.7641 C   0  0  0  0  0  0  0  0  0  0  0  0
   -1.0549    0.0003    2.5494 N   0  0  0  0  0  0  0  0  0  0  0  0
    0.0000    0.0000    0.0000 S   0  0  0  0  0  0  0  0  0  0  0  0
    2.5244    0.0415    2.0739 C   0  0  0  0  0  0  0  0  0  0  0  0
    3.1398    1.3158    2.3049 N   0  0  0  0  0  0  0  0  0  0  0  0
    4.5946    1.2555    2.3839 C   0  0  0  0  0  0  0  0  0  0  0  0
    5.1634    2.6663    2.2640 C   0  0  0  0  0  0  0  0  0  0  0  0
    4.8767    3.2880    0.9615 N   0  0  2  0  0  0  0  0  0  0  0  0
    3.6039    2.8314    0.3957 C   0  0  0  0  0  0  0  0  0  0  0  0
    2.6347    2.4339    1.5050 C   0  0  0  0  0  0  0  0  0  0  0  0
    5.9714    3.2540    0.0069 C   0  0  1  0  0  0  0  0  0  0  0  0
    5.6226    4.0066   -1.2994 C   0  0  0  0  0  0  0  0  0  0  0  0
    6.8897    4.1413   -2.1447 C   0  0  0  0  0  0  0  0  0  0  0  0
    8.2844    4.1734   -0.9448 S   0  0  0  0  0  0  0  0  0  0  0  0
    8.9266    5.4915   -0.9235 O   0  0  0  0  0  0  0  0  0  0  0  0
    9.0704    2.9433   -1.1194 O   0  0  0  0  0  0  0  0  0  0  0  0
    7.2287    3.9567    0.5286 C   0  0  0  0  0  0  0  0  0  0  0  0
   -4.5474   -2.0568    8.3195 H   0  0  0  0  0  0  0  0  0  0  0  0
   -3.0748   -2.0085    9.3109 H   0  0  0  0  0  0  0  0  0  0  0  0
   -4.6336   -1.4970   10.0111 H   0  0  0  0  0  0  0  0  0  0  0  0
   -3.2468    0.5136    9.4347 H   0  0  0  0  0  0  0  0  0  0  0  0
   -4.7115    0.4652    8.4470 H   0  0  0  0  0  0  0  0  0  0  0  0
   -1.0226    0.0416    8.4321 H   0  0  0  0  0  0  0  0  0  0  0  0
    0.3672    0.0391    6.3674 H   0  0  0  0  0  0  0  0  0  0  0  0
   -3.1916   -0.0224    3.9602 H   0  0  0  0  0  0  0  0  0  0  0  0
   -4.5921   -0.0190    6.0233 H   0  0  0  0  0  0  0  0  0  0  0  0
   -1.3499    0.0270   -0.0587 H   0  0  0  0  0  0  0  0  0  0  0  0
    3.0736   -0.7209    2.6456 H   0  0  0  0  0  0  0  0  0  0  0  0
    2.5238   -0.2777    1.0078 H   0  0  0  0  0  0  0  0  0  0  0  0
    4.8987    0.8024    3.3436 H   0  0  0  0  0  0  0  0  0  0  0  0
    5.0365    0.6264    1.5784 H   0  0  0  0  0  0  0  0  0  0  0  0
    4.7433    3.2855    3.0746 H   0  0  0  0  0  0  0  0  0  0  0  0
    6.2472    2.6345    2.4274 H   0  0  0  0  0  0  0  0  0  0  0  0
    3.1500    3.6269   -0.2170 H   0  0  0  0  0  0  0  0  0  0  0  0
    3.7467    1.9546   -0.2757 H   0  0  0  0  0  0  0  0  0  0  0  0
    1.6690    2.1610    1.0575 H   0  0  0  0  0  0  0  0  0  0  0  0
    2.4415    3.3079    2.1502 H   0  0  0  0  0  0  0  0  0  0  0  0
    6.2527    2.2096   -0.2678 H   0  0  0  0  0  0  0  0  0  0  0  0
    4.8354    3.4942   -1.8678 H   0  0  0  0  0  0  0  0  0  0  0  0
    5.2389    5.0001   -1.0167 H   0  0  0  0  0  0  0  0  0  0  0  0
    6.9428    5.0646   -2.7345 H   0  0  0  0  0  0  0  0  0  0  0  0
    7.0842    3.2705   -2.7846 H   0  0  0  0  0  0  0  0  0  0  0  0
    7.8344    3.3880    1.2438 H   0  0  0  0  0  0  0  0  0  0  0  0
    6.9882    4.9530    0.9252 H   0  0  0  0  0  0  0  0  0  0  0  0
  1 30  1  0  0  0  0
  1 31  1  0  0  0  0
  2  1  1  0  0  0  0
  2 32  1  0  0  0  0
  3  4  1  0  0  0  0
  3  2  1  0  0  0  0
  4 34  1  0  0  0  0
  5 35  1  0  0  0  0
  5  4  2  0  0  0  0
  6  5  1  0  0  0  0
  7  6  2  0  0  0  0
  7  8  1  0  0  0  0
  8  3  2  0  0  0  0
  9 10  2  0  0  0  0
  9  6  1  0  0  0  0
 11 10  1  0  0  0  0
 12 11  1  0  0  0  0
 12 13  2  0  0  0  0
 13  9  2  0  0  0  0
 14 12  1  0  0  0  0
 15 16  1  0  0  0  0
 15 11  1  0  0  0  0
 15 39  1  0  0  0  0
 16 17  1  0  0  0  0
 17 41  1  0  0  0  0
 18 17  1  0  0  0  0
 18 44  1  0  0  0  0
 18 43  1  0  0  0  0
 19 20  1  6  0  0  0
 19 18  1  0  0  0  0
 20 21  1  0  0  0  0
 21 48  1  0  0  0  0
 21 16  1  0  0  0  0
 22 49  1  6  0  0  0
 22 28  1  0  0  0  0
 22 19  1  0  0  0  0
 23 51  1  0  0  0  0
 23 22  1  0  0  0  0
 24 23  1  0  0  0  0
 24 25  1  0  0  0  0
 25 26  2  0  0  0  0
 25 28  1  0  0  0  0
 27 25  2  0  0  0  0
 28 55  1  0  0  0  0
 28 54  1  0  0  0  0
 29  1  1  0  0  0  0
 33  2  1  0  0  0  0
 36  7  1  0  0  0  0
 37  8  1  0  0  0  0
 38 14  1  0  0  0  0
 40 15  1  0  0  0  0
 42 17  1  0  0  0  0
 45 20  1  0  0  0  0
 46 20  1  0  0  0  0
 47 21  1  0  0  0  0
 50 23  1  0  0  0  0
 52 24  1  0  0  0  0
 53 24  1  0  0  0  0
M  END
