75940758.xyz
 OpenBabel08132112143D
O=C(NCC(c1nc2c(n1C(F)F)cccc2)C)CCn1c(S)nnc1c1ccc(cc1)C
 57 60  0  0  1  0  0  0  0  0999 V2000
   -5.2266   -0.3960    2.5146 O   0  0  0  0  0  0  0  0  0  0  0  0
   -4.6202   -1.4456    2.6690 C   0  0  0  0  0  0  0  0  0  0  0  0
   -5.2420   -2.5765    3.1106 N   0  0  0  0  0  0  0  0  0  0  0  0
   -4.6091   -3.7995    3.5670 C   0  0  0  0  0  0  0  0  0  0  0  0
   -4.0668   -3.7026    5.0085 C   0  0  2  0  0  0  0  0  0  0  0  0
   -3.3520   -4.9741    5.3606 C   0  0  0  0  0  0  0  0  0  0  0  0
   -3.5600   -6.1301    4.7954 N   0  0  0  0  0  0  0  0  0  0  0  0
   -2.7522   -7.0444    5.4621 C   0  0  0  0  0  0  0  0  0  0  0  0
   -2.0225   -6.3926    6.4852 C   0  0  2  0  0  0  0  0  0  0  0  0
   -2.4129   -5.0521    6.3964 N   0  0  0  0  0  0  0  0  0  0  0  0
   -2.0273   -3.9966    7.2563 C   0  0  0  0  0  0  0  0  0  0  0  0
   -0.6961   -4.0327    7.4805 F   0  0  0  0  0  0  0  0  0  0  0  0
   -2.6319   -4.1147    8.4763 F   0  0  0  0  0  0  0  0  0  0  0  0
   -1.1295   -7.0676    7.3194 C   0  0  0  0  0  0  0  0  0  0  0  0
   -0.9888   -8.4391    7.1017 C   0  0  0  0  0  0  0  0  0  0  0  0
   -1.7059   -9.1050    6.0870 C   0  0  0  0  0  0  0  0  0  0  0  0
   -2.5911   -8.4205    5.2562 C   0  0  0  0  0  0  0  0  0  0  0  0
   -5.1816   -3.3906    6.0217 C   0  0  0  0  0  0  0  0  0  0  0  0
   -3.1284   -1.5618    2.3649 C   0  0  0  0  0  0  0  0  0  0  0  0
   -2.5066   -0.1955    2.0573 C   0  0  0  0  0  0  0  0  0  0  0  0
   -1.1388   -0.0877    2.5455 N   0  0  0  0  0  0  0  0  0  0  0  0
    0.0000   -0.0000    1.7638 C   0  0  0  0  0  0  0  0  0  0  0  0
    0.0000    0.0000    0.0000 S   0  0  0  0  0  0  0  0  0  0  0  0
    1.0728    0.0000    2.5232 N   0  0  0  0  0  0  0  0  0  0  0  0
    0.6639   -0.0856    3.8118 N   0  0  0  0  0  0  0  0  0  0  0  0
   -0.6609   -0.1366    3.8372 C   0  0  0  0  0  0  0  0  0  0  0  0
   -1.4179   -0.2637    5.0933 C   0  0  0  0  0  0  0  0  0  0  0  0
   -2.7973   -0.0358    5.2355 C   0  0  0  0  0  0  0  0  0  0  0  0
   -3.4196   -0.1867    6.4784 C   0  0  0  0  0  0  0  0  0  0  0  0
   -2.6983   -0.5533    7.6210 C   0  0  0  0  0  0  0  0  0  0  0  0
   -1.3131   -0.7569    7.4777 C   0  0  0  0  0  0  0  0  0  0  0  0
   -0.6853   -0.6225    6.2455 C   0  0  0  0  0  0  0  0  0  0  0  0
   -3.3689   -0.7471    8.9557 C   0  0  0  0  0  0  0  0  0  0  0  0
   -6.2280   -2.4400    3.3108 H   0  0  0  0  0  0  0  0  0  0  0  0
   -5.3385   -4.6189    3.5119 H   0  0  0  0  0  0  0  0  0  0  0  0
   -3.7965   -4.0831    2.8849 H   0  0  0  0  0  0  0  0  0  0  0  0
   -3.3435   -2.8704    5.0393 H   0  0  0  0  0  0  0  0  0  0  0  0
   -2.2969   -3.0232    6.8305 H   0  0  0  0  0  0  0  0  0  0  0  0
   -0.5696   -6.5519    8.0991 H   0  0  0  0  0  0  0  0  0  0  0  0
   -0.3032   -9.0091    7.7326 H   0  0  0  0  0  0  0  0  0  0  0  0
   -1.5613  -10.1792    5.9516 H   0  0  0  0  0  0  0  0  0  0  0  0
   -3.1500   -8.9261    4.4670 H   0  0  0  0  0  0  0  0  0  0  0  0
   -5.9348   -4.1941    6.0205 H   0  0  0  0  0  0  0  0  0  0  0  0
   -4.7872   -3.3007    7.0439 H   0  0  0  0  0  0  0  0  0  0  0  0
   -5.6733   -2.4401    5.7687 H   0  0  0  0  0  0  0  0  0  0  0  0
   -2.9867   -2.2542    1.5187 H   0  0  0  0  0  0  0  0  0  0  0  0
   -2.6106   -2.0234    3.2164 H   0  0  0  0  0  0  0  0  0  0  0  0
   -3.1258    0.6060    2.4772 H   0  0  0  0  0  0  0  0  0  0  0  0
   -2.4652   -0.0231    0.9753 H   0  0  0  0  0  0  0  0  0  0  0  0
   -0.2584    1.3217   -0.1634 H   0  0  0  0  0  0  0  0  0  0  0  0
   -3.4150    0.2749    4.3960 H   0  0  0  0  0  0  0  0  0  0  0  0
   -4.4947   -0.0062    6.5546 H   0  0  0  0  0  0  0  0  0  0  0  0
   -0.7202   -1.0487    8.3486 H   0  0  0  0  0  0  0  0  0  0  0  0
    0.3869   -0.7908    6.1423 H   0  0  0  0  0  0  0  0  0  0  0  0
   -4.4450   -0.5278    8.9035 H   0  0  0  0  0  0  0  0  0  0  0  0
   -2.9240   -0.0925    9.7228 H   0  0  0  0  0  0  0  0  0  0  0  0
   -3.2472   -1.7849    9.3058 H   0  0  0  0  0  0  0  0  0  0  0  0
  1  2  2  0  0  0  0
  2  3  1  0  0  0  0
  3 34  1  0  0  0  0
  3  4  1  0  0  0  0
  4  5  1  0  0  0  0
  5 37  1  1  0  0  0
  5  6  1  0  0  0  0
  5 18  1  0  0  0  0
  6 10  1  0  0  0  0
  7  6  2  0  0  0  0
  7  8  2  0  0  0  0
  9  8  1  6  0  0  0
  9 14  1  0  0  0  0
 10  9  1  0  0  0  0
 10 11  1  0  0  0  0
 11 12  1  0  0  0  0
 11 13  1  0  0  0  0
 14 39  1  0  0  0  0
 15 14  2  0  0  0  0
 15 40  1  0  0  0  0
 16 15  1  0  0  0  0
 17  8  1  0  0  0  0
 17 16  2  0  0  0  0
 18 44  1  0  0  0  0
 19  2  1  0  0  0  0
 19 47  1  0  0  0  0
 20 19  1  0  0  0  0
 20 48  1  0  0  0  0
 20 21  1  0  0  0  0
 21 26  1  0  0  0  0
 22 24  2  0  0  0  0
 22 21  1  0  0  0  0
 23 22  1  0  0  0  0
 24 25  1  0  0  0  0
 25 26  2  0  0  0  0
 26 27  1  0  0  0  0
 27 28  2  0  0  0  0
 27 32  1  0  0  0  0
 28 29  1  0  0  0  0
 29 52  1  0  0  0  0
 29 30  2  0  0  0  0
 30 33  1  0  0  0  0
 31 30  1  0  0  0  0
 31 53  1  0  0  0  0
 32 31  2  0  0  0  0
 33 57  1  0  0  0  0
 33 56  1  0  0  0  0
 35  4  1  0  0  0  0
 36  4  1  0  0  0  0
 38 11  1  0  0  0  0
 41 16  1  0  0  0  0
 42 17  1  0  0  0  0
 43 18  1  0  0  0  0
 45 18  1  0  0  0  0
 46 19  1  0  0  0  0
 49 20  1  0  0  0  0
 50 23  1  0  0  0  0
 51 28  1  0  0  0  0
 54 32  1  0  0  0  0
 55 33  1  0  0  0  0
M  RAD  1   9   2
M  END
