75946488.xyz
 OpenBabel08132112143D
C=CCn1c(nnc1S)Cc1csc(n1)NC(=O)CN1C(=O)C2C(C1=O)C1CC2C=C1
 51 55  0  0  1  0  0  0  0  0999 V2000
   -3.6704    1.6199    0.4101 C   0  0  0  0  0  0  0  0  0  0  0  0
   -2.9510    1.3881    1.5095 C   0  0  0  0  0  0  0  0  0  0  0  0
   -2.5256    0.0196    1.9752 C   0  0  0  0  0  0  0  0  0  0  0  0
   -1.1618   -0.0101    2.4922 N   0  0  0  0  0  0  0  0  0  0  0  0
   -0.7281   -0.0010    3.8046 C   0  0  0  0  0  0  0  0  0  0  0  0
    0.5817    0.0038    3.8416 N   0  0  0  0  0  0  0  0  0  0  0  0
    1.0485    0.0000    2.5482 N   0  0  0  0  0  0  0  0  0  0  0  0
   -0.0000   -0.0000    1.7601 C   0  0  0  0  0  0  0  0  0  0  0  0
    0.0000    0.0000    0.0000 S   0  0  0  0  0  0  0  0  0  0  0  0
   -1.6204    0.0746    5.0065 C   0  0  0  0  0  0  0  0  0  0  0  0
   -2.4832    1.3132    4.9860 C   0  0  0  0  0  0  0  0  0  0  0  0
   -2.0326    2.5939    5.1660 C   0  0  0  0  0  0  0  0  0  0  0  0
   -3.3056    3.7305    4.8476 S   0  0  0  0  0  0  0  0  0  0  0  0
   -4.3576    2.3774    4.4558 C   0  0  0  0  0  0  0  0  0  0  0  0
   -3.8014    1.2095    4.6052 N   0  0  0  0  0  0  0  0  0  0  0  0
   -5.6855    2.4920    4.0724 N   0  0  0  0  0  0  0  0  0  0  0  0
   -6.3409    3.4269    3.2909 C   0  0  0  0  0  0  0  0  0  0  0  0
   -7.4719    3.2152    2.9100 O   0  0  0  0  0  0  0  0  0  0  0  0
   -5.5916    4.7151    2.9463 C   0  0  0  0  0  0  0  0  0  0  0  0
   -6.3367    5.4892    1.9960 N   0  0  0  0  0  0  0  0  0  0  0  0
   -6.2901    5.2439    0.6253 C   0  0  0  0  0  0  0  0  0  0  0  0
   -5.5482    4.4427    0.1056 O   0  0  0  0  0  0  0  0  0  0  0  0
   -7.3168    6.1403   -0.0441 C   0  0  2  0  0  0  0  0  0  0  0  0
   -7.9926    6.9168    1.1145 C   0  0  2  0  0  0  0  0  0  0  0  0
   -7.3119    6.4179    2.3777 C   0  0  0  0  0  0  0  0  0  0  0  0
   -7.5315    6.7294    3.5221 O   0  0  0  0  0  0  0  0  0  0  0  0
   -9.4963    6.4713    1.0079 C   0  0  2  0  0  0  0  0  0  0  0  0
   -9.3273    4.9926    0.5903 C   0  0  0  0  0  0  0  0  0  0  0  0
   -8.5126    5.3395   -0.6769 C   0  0  1  0  0  0  0  0  0  0  0  0
   -9.4116    6.3978   -1.3018 C   0  0  0  0  0  0  0  0  0  0  0  0
   -9.9970    7.0716   -0.2988 C   0  0  0  0  0  0  0  0  0  0  0  0
   -4.0246    2.6209    0.1521 H   0  0  0  0  0  0  0  0  0  0  0  0
   -3.9568    0.8013   -0.2594 H   0  0  0  0  0  0  0  0  0  0  0  0
   -2.6636    2.2168    2.1660 H   0  0  0  0  0  0  0  0  0  0  0  0
   -2.6086   -0.7152    1.1586 H   0  0  0  0  0  0  0  0  0  0  0  0
   -3.1875   -0.3093    2.7892 H   0  0  0  0  0  0  0  0  0  0  0  0
    1.3278   -0.2499   -0.0544 H   0  0  0  0  0  0  0  0  0  0  0  0
   -0.9510    0.0687    5.8769 H   0  0  0  0  0  0  0  0  0  0  0  0
   -2.2787   -0.8050    5.0777 H   0  0  0  0  0  0  0  0  0  0  0  0
   -1.0259    2.9282    5.4088 H   0  0  0  0  0  0  0  0  0  0  0  0
   -6.2057    1.6212    4.1662 H   0  0  0  0  0  0  0  0  0  0  0  0
   -5.4625    5.3181    3.8581 H   0  0  0  0  0  0  0  0  0  0  0  0
   -4.6049    4.4793    2.5238 H   0  0  0  0  0  0  0  0  0  0  0  0
   -6.8095    6.7659   -0.7911 H   0  0  0  0  0  0  0  0  0  0  0  0
   -7.8905    8.0094    1.0640 H   0  0  0  0  0  0  0  0  0  0  0  0
  -10.0768    6.6870    1.9130 H   0  0  0  0  0  0  0  0  0  0  0  0
   -8.7911    4.3723    1.3231 H   0  0  0  0  0  0  0  0  0  0  0  0
  -10.2887    4.5199    0.3463 H   0  0  0  0  0  0  0  0  0  0  0  0
   -8.1878    4.5143   -1.3223 H   0  0  0  0  0  0  0  0  0  0  0  0
   -9.4704    6.6145   -2.3698 H   0  0  0  0  0  0  0  0  0  0  0  0
  -10.6345    7.9540   -0.3759 H   0  0  0  0  0  0  0  0  0  0  0  0
  1  2  2  0  0  0  0
  2  3  1  0  0  0  0
  2 34  1  0  0  0  0
  3  4  1  0  0  0  0
  3 36  1  0  0  0  0
  4  5  1  0  0  0  0
  5  6  2  0  0  0  0
  5 10  1  0  0  0  0
  7  6  1  0  0  0  0
  8  4  1  0  0  0  0
  8  7  2  0  0  0  0
  9  8  1  0  0  0  0
 10 39  1  0  0  0  0
 10 38  1  0  0  0  0
 11 10  1  0  0  0  0
 11 12  1  0  0  0  0
 12 40  1  0  0  0  0
 13 12  1  0  0  0  0
 14 15  2  0  0  0  0
 14 13  1  0  0  0  0
 15 11  2  0  0  0  0
 16 41  1  0  0  0  0
 16 14  1  0  0  0  0
 17 16  1  0  0  0  0
 18 17  2  0  0  0  0
 19 17  1  0  0  0  0
 19 42  1  0  0  0  0
 20 25  1  0  0  0  0
 20 19  1  0  0  0  0
 21 20  1  0  0  0  0
 22 21  2  0  0  0  0
 23 29  1  6  0  0  0
 23 21  1  0  0  0  0
 24 23  1  6  0  0  0
 24 25  1  0  0  0  0
 25 26  2  0  0  0  0
 27 24  1  1  0  0  0
 27 46  1  0  0  0  0
 28 27  1  0  0  0  0
 28 47  1  0  0  0  0
 29 49  1  6  0  0  0
 29 28  1  0  0  0  0
 30 29  1  0  0  0  0
 30 31  2  0  0  0  0
 31 27  1  0  0  0  0
 32  1  1  0  0  0  0
 33  1  1  0  0  0  0
 35  3  1  0  0  0  0
 37  9  1  0  0  0  0
 43 19  1  0  0  0  0
 44 23  1  0  0  0  0
 45 24  1  0  0  0  0
 48 28  1  0  0  0  0
 50 30  1  0  0  0  0
 51 31  1  0  0  0  0
M  RAD  1  12   2
M  END
