75940492.xyz
 OpenBabel08132112143D
O=C(Cn1c(S)nnc1c1cccs1)Nc1ccc(cc1)NC(=O)C(C)C
 46 48  0  0  0  0  0  0  0  0999 V2000
    2.3118    2.0042    0.8617 O   0  0  0  0  0  0  0  0  0  0  0  0
    3.0227    1.2823    1.5358 C   0  0  0  0  0  0  0  0  0  0  0  0
    2.5069   -0.0930    1.9831 C   0  0  0  0  0  0  0  0  0  0  0  0
    1.1611    0.0000    2.4991 N   0  0  0  0  0  0  0  0  0  0  0  0
    0.0000    0.0000    1.7597 C   0  0  0  0  0  0  0  0  0  0  0  0
    0.0000    0.0000    0.0000 S   0  0  0  0  0  0  0  0  0  0  0  0
   -1.0465   -0.0043    2.5530 N   0  0  0  0  0  0  0  0  0  0  0  0
   -0.5909    0.0086    3.8395 N   0  0  0  0  0  0  0  0  0  0  0  0
    0.7275    0.0288    3.8144 C   0  0  0  0  0  0  0  0  0  0  0  0
    1.5622    0.0439    5.0041 C   0  0  0  0  0  0  0  0  0  0  0  0
    1.1836   -0.4261    6.2447 C   0  0  0  0  0  0  0  0  0  0  0  0
    2.1638   -0.2007    7.2527 C   0  0  0  0  0  0  0  0  0  0  0  0
    3.2795    0.4426    6.7790 C   0  0  0  0  0  0  0  0  0  0  0  0
    3.1396    0.8029    5.0932 S   0  0  0  0  0  0  0  0  0  0  0  0
    4.2960    1.5606    1.9344 N   0  0  0  0  0  0  0  0  0  0  0  0
    5.0665    2.7140    1.6775 C   0  0  0  0  0  0  0  0  0  0  0  0
    4.6133    3.7809    0.8858 C   0  0  0  0  0  0  0  0  0  0  0  0
    5.4394    4.8829    0.6854 C   0  0  0  0  0  0  0  0  0  0  0  0
    6.7205    4.9600    1.2567 C   0  0  0  0  0  0  0  0  0  0  0  0
    7.1710    3.8903    2.0497 C   0  0  0  0  0  0  0  0  0  0  0  0
    6.3452    2.7879    2.2495 C   0  0  0  0  0  0  0  0  0  0  0  0
    7.4871    6.1100    1.0046 N   0  0  0  0  0  0  0  0  0  0  0  0
    8.7533    6.4231    1.4458 C   0  0  0  0  0  0  0  0  0  0  0  0
    9.4199    5.6948    2.1592 O   0  0  0  0  0  0  0  0  0  0  0  0
    9.2725    7.7795    0.9557 C   0  0  0  0  0  0  0  0  0  0  0  0
    8.3972    8.9433    1.4394 C   0  0  0  0  0  0  0  0  0  0  0  0
    9.4610    7.7947   -0.5677 C   0  0  0  0  0  0  0  0  0  0  0  0
    2.4826   -0.7356    1.0877 H   0  0  0  0  0  0  0  0  0  0  0  0
    3.1448   -0.5753    2.7356 H   0  0  0  0  0  0  0  0  0  0  0  0
   -1.1109   -0.7703   -0.0724 H   0  0  0  0  0  0  0  0  0  0  0  0
    0.2197   -0.9092    6.4017 H   0  0  0  0  0  0  0  0  0  0  0  0
    2.0489   -0.5091    8.2925 H   0  0  0  0  0  0  0  0  0  0  0  0
    4.1792    0.7290    7.3209 H   0  0  0  0  0  0  0  0  0  0  0  0
    4.7281    0.8899    2.5590 H   0  0  0  0  0  0  0  0  0  0  0  0
    3.6215    3.7385    0.4429 H   0  0  0  0  0  0  0  0  0  0  0  0
    5.0744    5.7088    0.0678 H   0  0  0  0  0  0  0  0  0  0  0  0
    8.1600    3.9397    2.4972 H   0  0  0  0  0  0  0  0  0  0  0  0
    6.7079    1.9626    2.8695 H   0  0  0  0  0  0  0  0  0  0  0  0
    7.0350    6.8009    0.4181 H   0  0  0  0  0  0  0  0  0  0  0  0
   10.2605    7.8596    1.4327 H   0  0  0  0  0  0  0  0  0  0  0  0
    8.2579    8.9157    2.5308 H   0  0  0  0  0  0  0  0  0  0  0  0
    7.3982    8.9322    0.9713 H   0  0  0  0  0  0  0  0  0  0  0  0
    8.8640    9.9064    1.1797 H   0  0  0  0  0  0  0  0  0  0  0  0
    8.4979    7.7298   -1.1017 H   0  0  0  0  0  0  0  0  0  0  0  0
    9.9467    8.7310   -0.8847 H   0  0  0  0  0  0  0  0  0  0  0  0
   10.0887    6.9548   -0.9021 H   0  0  0  0  0  0  0  0  0  0  0  0
  1  2  2  0  0  0  0
  2 15  1  0  0  0  0
  2  3  1  0  0  0  0
  3  4  1  0  0  0  0
  3 29  1  0  0  0  0
  4  9  1  0  0  0  0
  5  4  1  0  0  0  0
  5  7  2  0  0  0  0
  6  5  1  0  0  0  0
  7  8  1  0  0  0  0
  9  8  2  0  0  0  0
  9 10  1  0  0  0  0
 10 14  1  0  0  0  0
 10 11  2  0  0  0  0
 11 31  1  0  0  0  0
 11 12  1  0  0  0  0
 12 32  1  0  0  0  0
 13 12  2  0  0  0  0
 13 33  1  0  0  0  0
 14 13  1  0  0  0  0
 15 34  1  0  0  0  0
 16 15  1  0  0  0  0
 16 21  2  0  0  0  0
 17 16  1  0  0  0  0
 18 17  2  0  0  0  0
 18 19  1  0  0  0  0
 19 20  2  0  0  0  0
 20 21  1  0  0  0  0
 20 37  1  0  0  0  0
 21 38  1  0  0  0  0
 22 19  1  0  0  0  0
 22 23  1  0  0  0  0
 23 24  2  0  0  0  0
 25 40  1  0  0  0  0
 25 26  1  0  0  0  0
 25 23  1  0  0  0  0
 26 41  1  0  0  0  0
 27 25  1  0  0  0  0
 28  3  1  0  0  0  0
 30  6  1  0  0  0  0
 35 17  1  0  0  0  0
 36 18  1  0  0  0  0
 39 22  1  0  0  0  0
 42 26  1  0  0  0  0
 43 26  1  0  0  0  0
 44 27  1  0  0  0  0
 45 27  1  0  0  0  0
 46 27  1  0  0  0  0
M  END
