75943168.xyz
 OpenBabel08132112143D
Cc1cccc(c1)c1nnc(n1CC(=O)Nc1ccc(nc1)N(C)C)S
 46 48  0  0  1  0  0  0  0  0999 V2000
    4.9529   -1.4328    6.1890 C   0  0  0  0  0  0  0  0  0  0  0  0
    3.6420   -0.6880    6.1699 C   0  0  0  0  0  0  0  0  0  0  0  0
    3.1903    0.0064    7.3027 C   0  0  0  0  0  0  0  0  0  0  0  0
    1.9587    0.6649    7.2936 C   0  0  0  0  0  0  0  0  0  0  0  0
    1.1619    0.6599    6.1497 C   0  0  0  0  0  0  0  0  0  0  0  0
    1.6014   -0.0135    4.9980 C   0  0  0  0  0  0  0  0  0  0  0  0
    2.8329   -0.6918    5.0278 C   0  0  0  0  0  0  0  0  0  0  0  0
    0.7339   -0.0168    3.8143 C   0  0  0  0  0  0  0  0  0  0  0  0
   -0.5806   -0.0211    3.8393 N   0  0  0  0  0  0  0  0  0  0  0  0
   -1.0449   -0.0167    2.5495 N   0  0  0  0  0  0  0  0  0  0  0  0
   -0.0000    0.0000    1.7590 C   0  0  0  0  0  0  0  0  0  0  0  0
    1.1677   -0.0000    2.4903 N   0  0  0  0  0  0  0  0  0  0  0  0
    2.5071    0.1572    1.9594 C   0  0  0  0  0  0  0  0  0  0  0  0
    3.2459   -1.1306    1.5632 C   0  0  0  0  0  0  0  0  0  0  0  0
    4.3700   -1.0476    1.1040 O   0  0  0  0  0  0  0  0  0  0  0  0
    2.5577   -2.2833    1.7877 N   0  0  0  0  0  0  0  0  0  0  0  0
    2.9716   -3.6116    1.5517 C   0  0  2  0  0  0  0  0  0  0  0  0
    2.0918   -4.6562    1.8743 C   0  0  0  0  0  0  0  0  0  0  0  0
    2.4626   -5.9740    1.6634 C   0  0  0  0  0  0  0  0  0  0  0  0
    3.7434   -6.2398    1.1088 C   0  0  0  0  0  0  0  0  0  0  0  0
    4.5815   -5.2334    0.8181 N   0  0  0  0  0  0  0  0  0  0  0  0
    4.2224   -3.9693    1.0230 C   0  0  0  0  0  0  0  0  0  0  0  0
    4.1647   -7.5245    0.8457 N   0  0  0  0  0  0  0  0  0  0  0  0
    5.5361   -7.7939    0.4592 C   0  0  0  0  0  0  0  0  0  0  0  0
    3.3328   -8.6497    1.2023 C   0  0  0  0  0  0  0  0  0  0  0  0
    0.0000    0.0000    0.0000 S   0  0  0  0  0  0  0  0  0  0  0  0
    5.2279   -1.7919    5.1866 H   0  0  0  0  0  0  0  0  0  0  0  0
    5.7700   -0.7927    6.5582 H   0  0  0  0  0  0  0  0  0  0  0  0
    4.9013   -2.3085    6.8577 H   0  0  0  0  0  0  0  0  0  0  0  0
    3.8095    0.0250    8.2038 H   0  0  0  0  0  0  0  0  0  0  0  0
    1.6189    1.1941    8.1870 H   0  0  0  0  0  0  0  0  0  0  0  0
    0.1986    1.1709    6.1270 H   0  0  0  0  0  0  0  0  0  0  0  0
    3.1599   -1.2721    4.1649 H   0  0  0  0  0  0  0  0  0  0  0  0
    3.1320    0.6729    2.7008 H   0  0  0  0  0  0  0  0  0  0  0  0
    2.4692    0.7996    1.0665 H   0  0  0  0  0  0  0  0  0  0  0  0
    1.6217   -2.1816    2.1640 H   0  0  0  0  0  0  0  0  0  0  0  0
    1.1089   -4.4324    2.3003 H   0  0  0  0  0  0  0  0  0  0  0  0
    1.7745   -6.7743    1.9281 H   0  0  0  0  0  0  0  0  0  0  0  0
    4.9435   -3.1929    0.7651 H   0  0  0  0  0  0  0  0  0  0  0  0
    5.5643   -8.5153   -0.3744 H   0  0  0  0  0  0  0  0  0  0  0  0
    6.0033   -6.8555    0.1429 H   0  0  0  0  0  0  0  0  0  0  0  0
    6.1248   -8.2134    1.2981 H   0  0  0  0  0  0  0  0  0  0  0  0
    3.2082   -8.7642    2.2976 H   0  0  0  0  0  0  0  0  0  0  0  0
    2.3273   -8.5697    0.7557 H   0  0  0  0  0  0  0  0  0  0  0  0
    3.7919   -9.5704    0.8181 H   0  0  0  0  0  0  0  0  0  0  0  0
   -1.3437    0.1401   -0.0541 H   0  0  0  0  0  0  0  0  0  0  0  0
  1 28  1  0  0  0  0
  1 29  1  0  0  0  0
  2  1  1  0  0  0  0
  2  3  2  0  0  0  0
  3 30  1  0  0  0  0
  4  3  1  0  0  0  0
  4 31  1  0  0  0  0
  5  4  2  0  0  0  0
  6  7  2  0  0  0  0
  6  5  1  0  0  0  0
  7  2  1  0  0  0  0
  8  9  2  0  0  0  0
  8  6  1  0  0  0  0
 10  9  1  0  0  0  0
 11 12  1  0  0  0  0
 11 10  2  0  0  0  0
 12  8  1  0  0  0  0
 13 12  1  0  0  0  0
 13 34  1  0  0  0  0
 14 16  1  0  0  0  0
 14 13  1  0  0  0  0
 15 14  2  0  0  0  0
 16 36  1  0  0  0  0
 17 16  1  1  0  0  0
 17 18  1  0  0  0  0
 18 37  1  0  0  0  0
 19 18  2  0  0  0  0
 19 38  1  0  0  0  0
 20 19  1  0  0  0  0
 21 22  2  0  0  0  0
 21 20  2  0  0  0  0
 22 17  1  0  0  0  0
 23 20  1  0  0  0  0
 23 25  1  0  0  0  0
 24 23  1  0  0  0  0
 24 42  1  0  0  0  0
 25 43  1  0  0  0  0
 26 11  1  0  0  0  0
 27  1  1  0  0  0  0
 32  5  1  0  0  0  0
 33  7  1  0  0  0  0
 35 13  1  0  0  0  0
 39 22  1  0  0  0  0
 40 24  1  0  0  0  0
 41 24  1  0  0  0  0
 44 25  1  0  0  0  0
 45 25  1  0  0  0  0
 46 26  1  0  0  0  0
M  RAD  1  17   2
M  END
