75949981.xyz
 OpenBabel08132112143D
Cc1cc(nc(n1)C(C)C)N1CCN(CC1)C(=O)c1ccc(cc1)n1ccnc1S
 56 59  0  0  0  0  0  0  0  0999 V2000
   -8.0898   -4.6261   -6.6369 C   0  0  0  0  0  0  0  0  0  0  0  0
   -8.6321   -3.4540   -5.8672 C   0  0  0  0  0  0  0  0  0  0  0  0
   -7.8980   -2.8389   -4.8559 C   0  0  0  0  0  0  0  0  0  0  0  0
   -8.5010   -1.7405   -4.1967 C   0  0  0  0  0  0  0  0  0  0  0  0
   -9.7362   -1.3386   -4.5439 N   0  0  0  0  0  0  0  0  0  0  0  0
  -10.3595   -1.9982   -5.5210 C   0  0  0  0  0  0  0  0  0  0  0  0
   -9.8623   -3.0336   -6.2030 N   0  0  0  0  0  0  0  0  0  0  0  0
  -11.7557   -1.5398   -5.8955 C   0  0  0  0  0  0  0  0  0  0  0  0
  -11.7985   -1.0911   -7.3623 C   0  0  0  0  0  0  0  0  0  0  0  0
  -12.7734   -2.6556   -5.6215 C   0  0  0  0  0  0  0  0  0  0  0  0
   -7.8668   -1.0514   -3.1986 N   0  0  0  0  0  0  0  0  0  0  0  0
   -8.5474   -0.0071   -2.4411 C   0  0  0  0  0  0  0  0  0  0  0  0
   -8.3400   -0.2128   -0.9487 C   0  0  0  0  0  0  0  0  0  0  0  0
   -6.9074   -0.2401   -0.6292 N   0  0  0  0  0  0  0  0  0  0  0  0
   -5.9914   -0.4266   -1.7481 C   0  0  0  0  0  0  0  0  0  0  0  0
   -6.5405   -1.4410   -2.7484 C   0  0  0  0  0  0  0  0  0  0  0  0
   -6.5851   -0.3637    0.6996 C   0  0  0  0  0  0  0  0  0  0  0  0
   -7.4525   -0.5093    1.5493 O   0  0  0  0  0  0  0  0  0  0  0  0
   -5.1372   -0.2864    1.0995 C   0  0  0  0  0  0  0  0  0  0  0  0
   -4.2525    0.6701    0.5825 C   0  0  0  0  0  0  0  0  0  0  0  0
   -2.9449    0.7624    1.0577 C   0  0  0  0  0  0  0  0  0  0  0  0
   -2.4978   -0.1292    2.0406 C   0  0  0  0  0  0  0  0  0  0  0  0
   -3.3793   -1.0800    2.5747 C   0  0  0  0  0  0  0  0  0  0  0  0
   -4.6936   -1.1389    2.1211 C   0  0  0  0  0  0  0  0  0  0  0  0
   -1.1629   -0.0649    2.5117 N   0  0  0  0  0  0  0  0  0  0  0  0
   -0.7633   -0.1150    3.8466 C   0  0  0  0  0  0  0  0  0  0  0  0
    0.6065   -0.0670    3.8251 C   0  0  0  0  0  0  0  0  0  0  0  0
    1.0682   -0.0000    2.5285 N   0  0  0  0  0  0  0  0  0  0  0  0
   -0.0000    0.0000    1.7689 C   0  0  0  0  0  0  0  0  0  0  0  0
    0.0000    0.0000    0.0000 S   0  0  0  0  0  0  0  0  0  0  0  0
   -8.0633   -4.3845   -7.7112 H   0  0  0  0  0  0  0  0  0  0  0  0
   -8.7644   -5.4894   -6.5244 H   0  0  0  0  0  0  0  0  0  0  0  0
   -7.0812   -4.9121   -6.3074 H   0  0  0  0  0  0  0  0  0  0  0  0
   -6.9078   -3.2065   -4.5943 H   0  0  0  0  0  0  0  0  0  0  0  0
  -11.9802   -0.6793   -5.2470 H   0  0  0  0  0  0  0  0  0  0  0  0
  -11.5182   -1.9266   -8.0215 H   0  0  0  0  0  0  0  0  0  0  0  0
  -11.0974   -0.2617   -7.5469 H   0  0  0  0  0  0  0  0  0  0  0  0
  -12.8101   -0.7511   -7.6359 H   0  0  0  0  0  0  0  0  0  0  0  0
  -12.5289   -3.5459   -6.2208 H   0  0  0  0  0  0  0  0  0  0  0  0
  -12.7693   -2.9480   -4.5594 H   0  0  0  0  0  0  0  0  0  0  0  0
  -13.7921   -2.3262   -5.8815 H   0  0  0  0  0  0  0  0  0  0  0  0
   -9.6129   -0.0555   -2.6909 H   0  0  0  0  0  0  0  0  0  0  0  0
   -8.1892    0.9937   -2.7449 H   0  0  0  0  0  0  0  0  0  0  0  0
   -8.8140   -1.1543   -0.6223 H   0  0  0  0  0  0  0  0  0  0  0  0
   -8.8218    0.5935   -0.3749 H   0  0  0  0  0  0  0  0  0  0  0  0
   -5.0277   -0.7925   -1.3771 H   0  0  0  0  0  0  0  0  0  0  0  0
   -5.7988    0.5299   -2.2660 H   0  0  0  0  0  0  0  0  0  0  0  0
   -6.5613   -2.4442   -2.2803 H   0  0  0  0  0  0  0  0  0  0  0  0
   -5.8446   -1.4971   -3.6034 H   0  0  0  0  0  0  0  0  0  0  0  0
   -4.5942    1.3789   -0.1740 H   0  0  0  0  0  0  0  0  0  0  0  0
   -2.2738    1.5340    0.6785 H   0  0  0  0  0  0  0  0  0  0  0  0
   -3.0239   -1.7736    3.3384 H   0  0  0  0  0  0  0  0  0  0  0  0
   -5.3971   -1.8546    2.5498 H   0  0  0  0  0  0  0  0  0  0  0  0
   -1.4908   -0.1365    4.6527 H   0  0  0  0  0  0  0  0  0  0  0  0
    1.2897   -0.0685    4.6730 H   0  0  0  0  0  0  0  0  0  0  0  0
    1.3462   -0.1114   -0.0415 H   0  0  0  0  0  0  0  0  0  0  0  0
  1 32  1  0  0  0  0
  1 33  1  0  0  0  0
  1  2  1  0  0  0  0
  2  3  1  0  0  0  0
  3 34  1  0  0  0  0
  3  4  1  0  0  0  0
  4 11  1  0  0  0  0
  5  4  2  0  0  0  0
  6  5  2  0  0  0  0
  7  2  2  0  0  0  0
  7  6  2  0  0  0  0
  8 10  1  0  0  0  0
  8  6  1  0  0  0  0
  8 35  1  0  0  0  0
  9  8  1  0  0  0  0
 10 40  1  0  0  0  0
 11 16  1  0  0  0  0
 11 12  1  0  0  0  0
 12 13  1  0  0  0  0
 13 14  1  0  0  0  0
 13 44  1  0  0  0  0
 13 45  1  0  0  0  0
 14 17  1  0  0  0  0
 15 46  1  0  0  0  0
 15 14  1  0  0  0  0
 16 48  1  0  0  0  0
 16 15  1  0  0  0  0
 17 19  1  0  0  0  0
 17 18  2  0  0  0  0
 19 24  2  0  0  0  0
 20 21  2  0  0  0  0
 20 19  1  0  0  0  0
 21 22  1  0  0  0  0
 22 25  1  0  0  0  0
 22 23  2  0  0  0  0
 23 52  1  0  0  0  0
 24 53  1  0  0  0  0
 24 23  1  0  0  0  0
 25 26  1  0  0  0  0
 26 54  1  0  0  0  0
 27 26  1  0  0  0  0
 27 55  1  0  0  0  0
 28 27  2  0  0  0  0
 29 25  1  0  0  0  0
 29 28  2  0  0  0  0
 30 29  1  0  0  0  0
 31  1  1  0  0  0  0
 36  9  1  0  0  0  0
 37  9  1  0  0  0  0
 38  9  1  0  0  0  0
 39 10  1  0  0  0  0
 41 10  1  0  0  0  0
 42 12  1  0  0  0  0
 43 12  1  0  0  0  0
 47 15  1  0  0  0  0
 49 16  1  0  0  0  0
 50 20  1  0  0  0  0
 51 21  1  0  0  0  0
 56 30  1  0  0  0  0
M  RAD  2   3   2  26   2
M  END
