75955057.xyz
 OpenBabel08132112143D
Cc1cccc(c1)c1nnc(n1CC(=O)N(C1CC1)C1CCCCC1)S
 52 55  0  0  0  0  0  0  0  0999 V2000
   -4.8477    1.7340    6.1454 C   0  0  0  0  0  0  0  0  0  0  0  0
   -3.6235    0.8528    6.1201 C   0  0  0  0  0  0  0  0  0  0  0  0
   -3.2962    0.0438    7.2198 C   0  0  0  0  0  0  0  0  0  0  0  0
   -2.1447   -0.7464    7.2079 C   0  0  0  0  0  0  0  0  0  0  0  0
   -1.3085   -0.7615    6.0911 C   0  0  0  0  0  0  0  0  0  0  0  0
   -1.6286    0.0243    4.9734 C   0  0  0  0  0  0  0  0  0  0  0  0
   -2.7760    0.8371    5.0065 C   0  0  0  0  0  0  0  0  0  0  0  0
   -0.7386    0.0120    3.8057 C   0  0  0  0  0  0  0  0  0  0  0  0
    0.5756   -0.0017    3.8411 N   0  0  0  0  0  0  0  0  0  0  0  0
    1.0446   -0.0000    2.5519 N   0  0  0  0  0  0  0  0  0  0  0  0
    0.0000   -0.0000    1.7609 C   0  0  0  0  0  0  0  0  0  0  0  0
   -1.1637   -0.0098    2.4865 N   0  0  0  0  0  0  0  0  0  0  0  0
   -2.4926   -0.1461    1.9471 C   0  0  0  0  0  0  0  0  0  0  0  0
   -3.1069    1.2135    1.5752 C   0  0  0  0  0  0  0  0  0  0  0  0
   -2.5810    2.2460    1.9581 O   0  0  0  0  0  0  0  0  0  0  0  0
   -4.2815    1.1804    0.8751 N   0  0  0  0  0  0  0  0  0  0  0  0
   -4.8768   -0.0589    0.4460 C   0  0  0  0  0  0  0  0  0  0  0  0
   -5.4754   -0.1330   -0.9333 C   0  0  0  0  0  0  0  0  0  0  0  0
   -4.2131   -0.8869   -0.6303 C   0  0  0  0  0  0  0  0  0  0  0  0
   -5.0682    2.4256    0.7406 C   0  0  0  0  0  0  0  0  0  0  0  0
   -5.4620    3.0455    2.0885 C   0  0  0  0  0  0  0  0  0  0  0  0
   -6.5126    4.1538    1.8804 C   0  0  0  0  0  0  0  0  0  0  0  0
   -6.2758    4.9515    0.5762 C   0  0  0  0  0  0  0  0  0  0  0  0
   -4.8059    4.8978    0.1511 C   0  0  0  0  0  0  0  0  0  0  0  0
   -4.3766    3.4585   -0.1816 C   0  0  0  0  0  0  0  0  0  0  0  0
    0.0000    0.0000    0.0000 S   0  0  0  0  0  0  0  0  0  0  0  0
   -4.9446    2.3120    5.2149 H   0  0  0  0  0  0  0  0  0  0  0  0
   -4.8084    2.4482    6.9842 H   0  0  0  0  0  0  0  0  0  0  0  0
   -5.7670    1.1384    6.2737 H   0  0  0  0  0  0  0  0  0  0  0  0
   -3.9455    0.0433    8.1000 H   0  0  0  0  0  0  0  0  0  0  0  0
   -1.8980   -1.3600    8.0778 H   0  0  0  0  0  0  0  0  0  0  0  0
   -0.4051   -1.3728    6.0680 H   0  0  0  0  0  0  0  0  0  0  0  0
   -2.9757    1.5081    4.1704 H   0  0  0  0  0  0  0  0  0  0  0  0
   -2.4537   -0.8240    1.0854 H   0  0  0  0  0  0  0  0  0  0  0  0
   -3.1369   -0.6233    2.7010 H   0  0  0  0  0  0  0  0  0  0  0  0
   -5.4077   -0.6168    1.2292 H   0  0  0  0  0  0  0  0  0  0  0  0
   -5.3864    0.7527   -1.5670 H   0  0  0  0  0  0  0  0  0  0  0  0
   -6.4108   -0.6850   -1.0518 H   0  0  0  0  0  0  0  0  0  0  0  0
   -3.2851   -0.4953   -1.0547 H   0  0  0  0  0  0  0  0  0  0  0  0
   -4.2495   -1.9753   -0.5352 H   0  0  0  0  0  0  0  0  0  0  0  0
   -6.0031    2.1068    0.2595 H   0  0  0  0  0  0  0  0  0  0  0  0
   -5.8563    2.2609    2.7545 H   0  0  0  0  0  0  0  0  0  0  0  0
   -4.5625    3.4506    2.5698 H   0  0  0  0  0  0  0  0  0  0  0  0
   -6.4860    4.8327    2.7478 H   0  0  0  0  0  0  0  0  0  0  0  0
   -7.5248    3.7162    1.8651 H   0  0  0  0  0  0  0  0  0  0  0  0
   -6.8931    4.5322   -0.2382 H   0  0  0  0  0  0  0  0  0  0  0  0
   -6.6086    5.9937    0.7021 H   0  0  0  0  0  0  0  0  0  0  0  0
   -4.1777    5.2885    0.9690 H   0  0  0  0  0  0  0  0  0  0  0  0
   -4.6245    5.5530   -0.7154 H   0  0  0  0  0  0  0  0  0  0  0  0
   -4.6279    3.2193   -1.2292 H   0  0  0  0  0  0  0  0  0  0  0  0
   -3.2884    3.3651   -0.0773 H   0  0  0  0  0  0  0  0  0  0  0  0
    1.3216   -0.2754   -0.0665 H   0  0  0  0  0  0  0  0  0  0  0  0
  1 29  1  0  0  0  0
  1 28  1  0  0  0  0
  2  1  1  0  0  0  0
  2  3  2  0  0  0  0
  3 30  1  0  0  0  0
  4  3  1  0  0  0  0
  4 31  1  0  0  0  0
  5  4  2  0  0  0  0
  6  7  2  0  0  0  0
  6  5  1  0  0  0  0
  7  2  1  0  0  0  0
  8  9  2  0  0  0  0
  8  6  1  0  0  0  0
 10  9  1  0  0  0  0
 11 12  1  0  0  0  0
 11 10  2  0  0  0  0
 12  8  1  0  0  0  0
 13 12  1  0  0  0  0
 13 35  1  0  0  0  0
 14 13  1  0  0  0  0
 14 15  2  0  0  0  0
 16 14  1  0  0  0  0
 17 16  1  0  0  0  0
 17 36  1  0  0  0  0
 18 19  1  0  0  0  0
 18 17  1  0  0  0  0
 19 40  1  0  0  0  0
 19 17  1  0  0  0  0
 20 16  1  0  0  0  0
 20 21  1  0  0  0  0
 21 43  1  0  0  0  0
 21 42  1  0  0  0  0
 22 21  1  0  0  0  0
 22 44  1  0  0  0  0
 23 47  1  0  0  0  0
 23 22  1  0  0  0  0
 24 23  1  0  0  0  0
 24 48  1  0  0  0  0
 25 51  1  0  0  0  0
 25 24  1  0  0  0  0
 25 20  1  0  0  0  0
 26 11  1  0  0  0  0
 27  1  1  0  0  0  0
 32  5  1  0  0  0  0
 33  7  1  0  0  0  0
 34 13  1  0  0  0  0
 37 18  1  0  0  0  0
 38 18  1  0  0  0  0
 39 19  1  0  0  0  0
 41 20  1  0  0  0  0
 45 22  1  0  0  0  0
 46 23  1  0  0  0  0
 49 24  1  0  0  0  0
 50 25  1  0  0  0  0
 52 26  1  0  0  0  0
M  END
