76051815.xyz
 OpenBabel08132112143D
SCC(C(=O)OC(C)(C)C)N
 26 25  0  0  1  0  0  0  0  0999 V2000
    0.0000    0.0000    0.0000 S   0  0  0  0  0  0  0  0  0  0  0  0
   -0.0000   -0.0000    1.8315 C   0  0  0  0  0  0  0  0  0  0  0  0
    1.3858    0.0000    2.4940 C   0  0  2  0  0  0  0  0  0  0  0  0
    2.2011   -1.1879    1.9730 C   0  0  0  0  0  0  0  0  0  0  0  0
    1.9982   -2.3201    2.3518 O   0  0  0  0  0  0  0  0  0  0  0  0
    3.1222   -0.8088    1.0883 O   0  0  0  0  0  0  0  0  0  0  0  0
    3.9359   -1.7770    0.3375 C   0  0  0  0  0  0  0  0  0  0  0  0
    4.8473   -2.5378    1.3009 C   0  0  0  0  0  0  0  0  0  0  0  0
    3.0223   -2.7097   -0.4591 C   0  0  0  0  0  0  0  0  0  0  0  0
    4.7474   -0.8830   -0.5964 C   0  0  0  0  0  0  0  0  0  0  0  0
    1.2027   -0.0422    3.9376 N   0  0  0  0  0  0  0  0  0  0  0  0
    0.7119    1.1405   -0.1561 H   0  0  0  0  0  0  0  0  0  0  0  0
   -0.5273   -0.9271    2.1065 H   0  0  0  0  0  0  0  0  0  0  0  0
   -0.5803    0.8456    2.2258 H   0  0  0  0  0  0  0  0  0  0  0  0
    1.9126    0.9276    2.2220 H   0  0  0  0  0  0  0  0  0  0  0  0
    5.4544   -1.8336    1.8907 H   0  0  0  0  0  0  0  0  0  0  0  0
    4.2607   -3.1629    1.9855 H   0  0  0  0  0  0  0  0  0  0  0  0
    5.5313   -3.1835    0.7288 H   0  0  0  0  0  0  0  0  0  0  0  0
    2.3120   -2.1218   -1.0585 H   0  0  0  0  0  0  0  0  0  0  0  0
    3.6317   -3.3274   -1.1365 H   0  0  0  0  0  0  0  0  0  0  0  0
    2.4530   -3.3705    0.2060 H   0  0  0  0  0  0  0  0  0  0  0  0
    5.3592   -0.1745   -0.0181 H   0  0  0  0  0  0  0  0  0  0  0  0
    5.4149   -1.4934   -1.2227 H   0  0  0  0  0  0  0  0  0  0  0  0
    4.0774   -0.3078   -1.2525 H   0  0  0  0  0  0  0  0  0  0  0  0
    2.0902    0.1323    4.4093 H   0  0  0  0  0  0  0  0  0  0  0  0
    0.9287   -0.9923    4.1985 H   0  0  0  0  0  0  0  0  0  0  0  0
  1  2  1  0  0  0  0
  2 13  1  0  0  0  0
  2 14  1  0  0  0  0
  2  3  1  0  0  0  0
  3 15  1  6  0  0  0
  3 11  1  0  0  0  0
  4  5  2  0  0  0  0
  4  3  1  0  0  0  0
  6  4  1  0  0  0  0
  7  6  1  0  0  0  0
  7  8  1  0  0  0  0
  8 16  1  0  0  0  0
  8 17  1  0  0  0  0
  9 21  1  0  0  0  0
  9  7  1  0  0  0  0
 10 22  1  0  0  0  0
 10  7  1  0  0  0  0
 11 26  1  0  0  0  0
 11 25  1  0  0  0  0
 12  1  1  0  0  0  0
 18  8  1  0  0  0  0
 19  9  1  0  0  0  0
 20  9  1  0  0  0  0
 23 10  1  0  0  0  0
 24 10  1  0  0  0  0
M  END
