8268741.xyz
 OpenBabel08132112143D
CCOc1ccc(cc1)c1nnc(n1NCCC#N)S
 35 36  0  0  0  0  0  0  0  0999 V2000
    3.3975    1.8064    9.9323 C   0  0  0  0  0  0  0  0  0  0  0  0
    3.4844    0.2988    9.7450 C   0  0  0  0  0  0  0  0  0  0  0  0
    3.9702   -0.0653    8.4585 O   0  0  0  0  0  0  0  0  0  0  0  0
    3.1536   -0.0384    7.3802 C   0  0  0  0  0  0  0  0  0  0  0  0
    1.7799    0.2587    7.4162 C   0  0  0  0  0  0  0  0  0  0  0  0
    1.0345    0.2440    6.2403 C   0  0  0  0  0  0  0  0  0  0  0  0
    1.6265   -0.0600    5.0023 C   0  0  0  0  0  0  0  0  0  0  0  0
    3.0018   -0.3659    4.9778 C   0  0  0  0  0  0  0  0  0  0  0  0
    3.7511   -0.3520    6.1476 C   0  0  0  0  0  0  0  0  0  0  0  0
    0.7664   -0.0751    3.8168 C   0  0  0  0  0  0  0  0  0  0  0  0
   -0.5506   -0.1096    3.8464 N   0  0  0  0  0  0  0  0  0  0  0  0
   -1.0308   -0.0768    2.5623 N   0  0  0  0  0  0  0  0  0  0  0  0
    0.0000    0.0000    1.7625 C   0  0  0  0  0  0  0  0  0  0  0  0
    1.1719    0.0000    2.4901 N   0  0  0  0  0  0  0  0  0  0  0  0
    2.4668    0.0704    1.9982 N   0  0  0  0  0  0  0  0  0  0  0  0
    3.0396    1.4079    1.9328 C   0  0  0  0  0  0  0  0  0  0  0  0
    2.2462    2.4386    1.1000 C   0  0  0  0  0  0  0  0  0  0  0  0
    2.9018    3.7445    1.1017 C   0  0  0  0  0  0  0  0  0  0  0  0
    3.4538    4.7626    1.1220 N   0  0  0  0  0  0  0  0  0  0  0  0
    0.0000    0.0000    0.0000 S   0  0  0  0  0  0  0  0  0  0  0  0
    3.0883    2.0425   10.9628 H   0  0  0  0  0  0  0  0  0  0  0  0
    2.6709    2.2633    9.2442 H   0  0  0  0  0  0  0  0  0  0  0  0
    4.3787    2.2703    9.7495 H   0  0  0  0  0  0  0  0  0  0  0  0
    2.5143   -0.1907    9.9408 H   0  0  0  0  0  0  0  0  0  0  0  0
    4.2118   -0.1314   10.4492 H   0  0  0  0  0  0  0  0  0  0  0  0
    1.2820    0.5065    8.3528 H   0  0  0  0  0  0  0  0  0  0  0  0
   -0.0324    0.4699    6.2642 H   0  0  0  0  0  0  0  0  0  0  0  0
    3.4789   -0.6290    4.0346 H   0  0  0  0  0  0  0  0  0  0  0  0
    4.8158   -0.5917    6.1383 H   0  0  0  0  0  0  0  0  0  0  0  0
    2.5266   -0.4586    1.1297 H   0  0  0  0  0  0  0  0  0  0  0  0
    4.0544    1.2941    1.5232 H   0  0  0  0  0  0  0  0  0  0  0  0
    3.1536    1.7816    2.9624 H   0  0  0  0  0  0  0  0  0  0  0  0
    2.1364    2.0981    0.0575 H   0  0  0  0  0  0  0  0  0  0  0  0
    1.2283    2.5557    1.5054 H   0  0  0  0  0  0  0  0  0  0  0  0
   -1.2874   -0.4058   -0.0667 H   0  0  0  0  0  0  0  0  0  0  0  0
  1 21  1  0  0  0  0
  2  1  1  0  0  0  0
  2 24  1  0  0  0  0
  2 25  1  0  0  0  0
  3  2  1  0  0  0  0
  4  5  1  0  0  0  0
  4  3  1  0  0  0  0
  5 26  1  0  0  0  0
  6 27  1  0  0  0  0
  6  5  2  0  0  0  0
  7  6  1  0  0  0  0
  8  7  2  0  0  0  0
  8  9  1  0  0  0  0
  9  4  2  0  0  0  0
 10 11  2  0  0  0  0
 10  7  1  0  0  0  0
 12 11  1  0  0  0  0
 13 14  1  0  0  0  0
 13 12  2  0  0  0  0
 14 10  1  0  0  0  0
 15 14  1  0  0  0  0
 16 15  1  0  0  0  0
 16 32  1  0  0  0  0
 17 18  1  0  0  0  0
 17 34  1  0  0  0  0
 17 16  1  0  0  0  0
 18 19  3  0  0  0  0
 20 13  1  0  0  0  0
 22  1  1  0  0  0  0
 23  1  1  0  0  0  0
 28  8  1  0  0  0  0
 29  9  1  0  0  0  0
 30 15  1  0  0  0  0
 31 16  1  0  0  0  0
 33 17  1  0  0  0  0
 35 20  1  0  0  0  0
M  END
