829121.xyz
 OpenBabel08132112143D
COc1ccc(cc1)n1nnnc1S
 22 23  0  0  0  0  0  0  0  0999 V2000
   -7.4251   -1.0505    1.8381 C   0  0  0  0  0  0  0  0  0  0  0  0
   -6.5054   -0.2142    1.1700 O   0  0  0  0  0  0  0  0  0  0  0  0
   -5.2099   -0.2197    1.5535 C   0  0  0  0  0  0  0  0  0  0  0  0
   -4.6912   -1.0168    2.5872 C   0  0  0  0  0  0  0  0  0  0  0  0
   -3.3325   -0.9564    2.8993 C   0  0  0  0  0  0  0  0  0  0  0  0
   -2.4889   -0.0960    2.1950 C   0  0  0  0  0  0  0  0  0  0  0  0
   -3.0039    0.7172    1.1760 C   0  0  0  0  0  0  0  0  0  0  0  0
   -4.3524    0.6462    0.8520 C   0  0  0  0  0  0  0  0  0  0  0  0
   -1.1098   -0.0434    2.5330 N   0  0  0  0  0  0  0  0  0  0  0  0
   -0.6898   -0.0766    3.8287 N   0  0  0  0  0  0  0  0  0  0  0  0
    0.5911   -0.0523    3.8022 N   0  0  0  0  0  0  0  0  0  0  0  0
    1.0626    0.0000    2.5358 N   0  0  0  0  0  0  0  0  0  0  0  0
   -0.0000   -0.0000    1.7517 C   0  0  0  0  0  0  0  0  0  0  0  0
    0.0000    0.0000    0.0000 S   0  0  0  0  0  0  0  0  0  0  0  0
   -7.4952   -0.8036    2.9123 H   0  0  0  0  0  0  0  0  0  0  0  0
   -7.1576   -2.1170    1.7334 H   0  0  0  0  0  0  0  0  0  0  0  0
   -8.4016   -0.8791    1.3673 H   0  0  0  0  0  0  0  0  0  0  0  0
   -5.3323   -1.6929    3.1512 H   0  0  0  0  0  0  0  0  0  0  0  0
   -2.9193   -1.5723    3.6985 H   0  0  0  0  0  0  0  0  0  0  0  0
   -2.3532    1.4144    0.6459 H   0  0  0  0  0  0  0  0  0  0  0  0
   -4.7758    1.2679    0.0617 H   0  0  0  0  0  0  0  0  0  0  0  0
    1.3505   -0.0655   -0.0496 H   0  0  0  0  0  0  0  0  0  0  0  0
  1 15  1  0  0  0  0
  2  3  1  0  0  0  0
  2  1  1  0  0  0  0
  3  4  2  0  0  0  0
  4  5  1  0  0  0  0
  4 18  1  0  0  0  0
  5 19  1  0  0  0  0
  6  9  1  0  0  0  0
  6  5  2  0  0  0  0
  7  6  1  0  0  0  0
  8  7  2  0  0  0  0
  8  3  1  0  0  0  0
  9 10  1  0  0  0  0
 11 10  2  0  0  0  0
 12 11  1  0  0  0  0
 13  9  1  0  0  0  0
 13 12  2  0  0  0  0
 14 13  1  0  0  0  0
 16  1  1  0  0  0  0
 17  1  1  0  0  0  0
 20  7  1  0  0  0  0
 21  8  1  0  0  0  0
 22 14  1  0  0  0  0
M  END
