837623.xyz
 OpenBabel08132112143D
CCn1c(CSc2nc(C)cc(n2)C)nnc1S
 33 34  0  0  0  0  0  0  0  0999 V2000
    3.0417    1.4539    1.7789 C   0  0  0  0  0  0  0  0  0  0  0  0
    2.5236    0.0354    1.9897 C   0  0  0  0  0  0  0  0  0  0  0  0
    1.1577    0.0000    2.4964 N   0  0  0  0  0  0  0  0  0  0  0  0
    0.7185    0.0134    3.8065 C   0  0  0  0  0  0  0  0  0  0  0  0
    1.5876    0.0426    5.0110 C   0  0  0  0  0  0  0  0  0  0  0  0
    2.5666   -1.4989    5.2754 S   0  0  0  0  0  0  0  0  0  0  0  0
    4.2358   -0.9022    5.1550 C   0  0  0  0  0  0  0  0  0  0  0  0
    4.4774    0.3672    4.8335 N   0  0  0  0  0  0  0  0  0  0  0  0
    5.7614    0.7489    4.7579 C   0  0  0  0  0  0  0  0  0  0  0  0
    6.0253    2.1809    4.3913 C   0  0  0  0  0  0  0  0  0  0  0  0
    6.7899   -0.1655    5.0035 C   0  0  0  0  0  0  0  0  0  0  0  0
    6.4320   -1.4839    5.3264 C   0  0  0  0  0  0  0  0  0  0  0  0
    5.1472   -1.8452    5.4019 N   0  0  0  0  0  0  0  0  0  0  0  0
    7.4550   -2.5471    5.6054 C   0  0  0  0  0  0  0  0  0  0  0  0
   -0.5936    0.0047    3.8365 N   0  0  0  0  0  0  0  0  0  0  0  0
   -1.0534    0.0019    2.5436 N   0  0  0  0  0  0  0  0  0  0  0  0
    0.0000    0.0000    1.7614 C   0  0  0  0  0  0  0  0  0  0  0  0
    0.0000    0.0000    0.0000 S   0  0  0  0  0  0  0  0  0  0  0  0
    2.4050    2.0051    1.0702 H   0  0  0  0  0  0  0  0  0  0  0  0
    4.0646    1.4232    1.3726 H   0  0  0  0  0  0  0  0  0  0  0  0
    3.0695    2.0019    2.7319 H   0  0  0  0  0  0  0  0  0  0  0  0
    3.1542   -0.5104    2.7015 H   0  0  0  0  0  0  0  0  0  0  0  0
    2.5378   -0.5333    1.0469 H   0  0  0  0  0  0  0  0  0  0  0  0
    0.9312    0.1713    5.8804 H   0  0  0  0  0  0  0  0  0  0  0  0
    2.3279    0.8547    4.9809 H   0  0  0  0  0  0  0  0  0  0  0  0
    7.0952    2.4255    4.4322 H   0  0  0  0  0  0  0  0  0  0  0  0
    5.6541    2.3818    3.3736 H   0  0  0  0  0  0  0  0  0  0  0  0
    5.4741    2.8501    5.0697 H   0  0  0  0  0  0  0  0  0  0  0  0
    7.8365    0.1358    4.9443 H   0  0  0  0  0  0  0  0  0  0  0  0
    8.4819   -2.1709    5.5024 H   0  0  0  0  0  0  0  0  0  0  0  0
    7.3082   -3.3948    4.9181 H   0  0  0  0  0  0  0  0  0  0  0  0
    7.3150   -2.9390    6.6252 H   0  0  0  0  0  0  0  0  0  0  0  0
   -1.3477   -0.0897   -0.0535 H   0  0  0  0  0  0  0  0  0  0  0  0
  1  2  1  0  0  0  0
  1 21  1  0  0  0  0
  2  3  1  0  0  0  0
  2 22  1  0  0  0  0
  3  4  1  0  0  0  0
  4 15  2  0  0  0  0
  4  5  1  0  0  0  0
  5  6  1  0  0  0  0
  5 24  1  0  0  0  0
  7  6  1  0  0  0  0
  7 13  2  0  0  0  0
  8  7  2  0  0  0  0
  9  8  2  0  0  0  0
  9 11  1  0  0  0  0
 10 26  1  0  0  0  0
 10  9  1  0  0  0  0
 10 28  1  0  0  0  0
 11 12  1  0  0  0  0
 12 13  2  0  0  0  0
 12 14  1  0  0  0  0
 14 32  1  0  0  0  0
 16 15  1  0  0  0  0
 17  3  1  0  0  0  0
 17 16  2  0  0  0  0
 18 17  1  0  0  0  0
 19  1  1  0  0  0  0
 20  1  1  0  0  0  0
 23  2  1  0  0  0  0
 25  5  1  0  0  0  0
 27 10  1  0  0  0  0
 29 11  1  0  0  0  0
 30 14  1  0  0  0  0
 31 14  1  0  0  0  0
 33 18  1  0  0  0  0
M  RAD  1  11   2
M  END
