8852775.xyz
 OpenBabel08132112143D
Oc1nc(S)nc(c1)c1ccco1
 19 20  0  0  0  0  0  0  0  0999 V2000
    2.4924   -0.0003    4.1824 O   0  0  0  0  0  0  0  0  0  0  0  0
    1.2612   -0.0004    3.6487 C   0  0  0  0  0  0  0  0  0  0  0  0
    1.2151    0.0000    2.3238 N   0  0  0  0  0  0  0  0  0  0  0  0
    0.0000   -0.0000    1.7711 C   0  0  0  0  0  0  0  0  0  0  0  0
    0.0000    0.0000    0.0000 S   0  0  0  0  0  0  0  0  0  0  0  0
   -1.1698   -0.0007    2.4040 N   0  0  0  0  0  0  0  0  0  0  0  0
   -1.1170   -0.0011    3.7496 C   0  0  0  0  0  0  0  0  0  0  0  0
    0.0995   -0.0009    4.4401 C   0  0  0  0  0  0  0  0  0  0  0  0
   -2.3926   -0.0016    4.4470 C   0  0  0  0  0  0  0  0  0  0  0  0
   -3.6885   -0.0020    3.9907 C   0  0  0  0  0  0  0  0  0  0  0  0
   -4.5226   -0.0023    5.1511 C   0  0  0  0  0  0  0  0  0  0  0  0
   -3.6747   -0.0023    6.2265 C   0  0  0  0  0  0  0  0  0  0  0  0
   -2.3857   -0.0018    5.8120 O   0  0  0  0  0  0  0  0  0  0  0  0
    2.4258   -0.0006    5.1470 H   0  0  0  0  0  0  0  0  0  0  0  0
   -1.3480   -0.0010   -0.0995 H   0  0  0  0  0  0  0  0  0  0  0  0
    0.1285   -0.0012    5.5300 H   0  0  0  0  0  0  0  0  0  0  0  0
   -3.9815   -0.0019    2.9448 H   0  0  0  0  0  0  0  0  0  0  0  0
   -5.6096   -0.0025    5.1851 H   0  0  0  0  0  0  0  0  0  0  0  0
   -3.8328   -0.0025    7.3016 H   0  0  0  0  0  0  0  0  0  0  0  0
  1 14  1  0  0  0  0
  2  1  1  0  0  0  0
  2  8  1  0  0  0  0
  3  2  2  0  0  0  0
  4  3  2  0  0  0  0
  4  6  2  0  0  0  0
  5  4  1  0  0  0  0
  6  7  2  0  0  0  0
  7  8  1  0  0  0  0
  7  9  1  0  0  0  0
  8 16  1  0  0  0  0
  9 13  1  0  0  0  0
 10  9  2  0  0  0  0
 10 11  1  0  0  0  0
 11 18  1  0  0  0  0
 11 12  2  0  0  0  0
 12 19  1  0  0  0  0
 13 12  1  0  0  0  0
 15  5  1  0  0  0  0
 17 10  1  0  0  0  0
M  RAD  1   8   2
M  END
