8855143.xyz
 OpenBabel08132112143D
COc1cc(OC)ccc1n1c(S)nnc1c1cccc(c1)OC(C(F)F)(F)F
 44 46  0  0  0  0  0  0  0  0999 V2000
    2.6948   -3.4106    0.7953 C   0  0  0  0  0  0  0  0  0  0  0  0
    2.2475   -2.2194    1.4103 O   0  0  0  0  0  0  0  0  0  0  0  0
    3.0353   -1.1283    1.3817 C   0  0  0  0  0  0  0  0  0  0  0  0
    4.3276   -1.0931    0.8629 C   0  0  0  0  0  0  0  0  0  0  0  0
    5.0900    0.0865    0.9366 C   0  0  0  0  0  0  0  0  0  0  0  0
    6.3410   -0.0019    0.4438 O   0  0  0  0  0  0  0  0  0  0  0  0
    7.2286    1.0854    0.6194 C   0  0  0  0  0  0  0  0  0  0  0  0
    4.5457    1.2490    1.5046 C   0  0  0  0  0  0  0  0  0  0  0  0
    3.2382    1.2118    1.9974 C   0  0  0  0  0  0  0  0  0  0  0  0
    2.4846    0.0445    1.9527 C   0  0  0  0  0  0  0  0  0  0  0  0
    1.1665    0.0000    2.4830 N   0  0  0  0  0  0  0  0  0  0  0  0
   -0.0000   -0.0000    1.7558 C   0  0  0  0  0  0  0  0  0  0  0  0
    0.0000    0.0000    0.0000 S   0  0  0  0  0  0  0  0  0  0  0  0
   -1.0437    0.0243    2.5511 N   0  0  0  0  0  0  0  0  0  0  0  0
   -0.5749    0.0386    3.8360 N   0  0  0  0  0  0  0  0  0  0  0  0
    0.7396    0.0142    3.8051 C   0  0  0  0  0  0  0  0  0  0  0  0
    1.6029    0.0378    4.9898 C   0  0  0  0  0  0  0  0  0  0  0  0
    1.1092    0.6430    6.1604 C   0  0  0  0  0  0  0  0  0  0  0  0
    1.8890    0.6897    7.3142 C   0  0  0  0  0  0  0  0  0  0  0  0
    3.1745    0.1415    7.3266 C   0  0  0  0  0  0  0  0  0  0  0  0
    3.6519   -0.4693    6.1681 C   0  0  0  0  0  0  0  0  0  0  0  0
    2.8838   -0.5407    5.0068 C   0  0  0  0  0  0  0  0  0  0  0  0
    4.9051   -1.0825    6.1903 O   0  0  0  0  0  0  0  0  0  0  0  0
    6.0053   -0.3392    5.8722 C   0  0  0  0  0  0  0  0  0  0  0  0
    6.0254    0.1250    4.4048 C   0  0  0  0  0  0  0  0  0  0  0  0
    7.1841    0.7761    4.1481 F   0  0  0  0  0  0  0  0  0  0  0  0
    5.9603   -0.9667    3.6096 F   0  0  0  0  0  0  0  0  0  0  0  0
    7.0738   -1.1037    6.1185 F   0  0  0  0  0  0  0  0  0  0  0  0
    6.0896    0.7718    6.6499 F   0  0  0  0  0  0  0  0  0  0  0  0
    2.8925   -3.2562   -0.2792 H   0  0  0  0  0  0  0  0  0  0  0  0
    1.8853   -4.1415    0.9137 H   0  0  0  0  0  0  0  0  0  0  0  0
    3.6079   -3.7973    1.2797 H   0  0  0  0  0  0  0  0  0  0  0  0
    4.8002   -1.9719    0.4289 H   0  0  0  0  0  0  0  0  0  0  0  0
    8.1902    0.7713    0.1941 H   0  0  0  0  0  0  0  0  0  0  0  0
    6.8792    1.9872    0.0868 H   0  0  0  0  0  0  0  0  0  0  0  0
    7.3636    1.3188    1.6885 H   0  0  0  0  0  0  0  0  0  0  0  0
    5.1164    2.1741    1.5597 H   0  0  0  0  0  0  0  0  0  0  0  0
    2.7901    2.1048    2.4368 H   0  0  0  0  0  0  0  0  0  0  0  0
   -1.3494    0.0747   -0.0496 H   0  0  0  0  0  0  0  0  0  0  0  0
    0.1059    1.0696    6.1395 H   0  0  0  0  0  0  0  0  0  0  0  0
    1.4957    1.1638    8.2160 H   0  0  0  0  0  0  0  0  0  0  0  0
    3.8054    0.1725    8.2152 H   0  0  0  0  0  0  0  0  0  0  0  0
    3.2860   -1.0627    4.1409 H   0  0  0  0  0  0  0  0  0  0  0  0
    5.1789    0.7902    4.1781 H   0  0  0  0  0  0  0  0  0  0  0  0
  1 31  1  0  0  0  0
  1 32  1  0  0  0  0
  1  2  1  0  0  0  0
  3  2  1  0  0  0  0
  3 10  2  0  0  0  0
  4  5  2  0  0  0  0
  4  3  1  0  0  0  0
  5  8  1  0  0  0  0
  6  7  1  0  0  0  0
  6  5  1  0  0  0  0
  7 36  1  0  0  0  0
  8 37  1  0  0  0  0
  8  9  2  0  0  0  0
  9 38  1  0  0  0  0
 10  9  1  0  0  0  0
 10 11  1  0  0  0  0
 11 16  1  0  0  0  0
 12 11  1  0  0  0  0
 12 14  2  0  0  0  0
 13 12  1  0  0  0  0
 14 15  1  0  0  0  0
 16 15  2  0  0  0  0
 16 17  1  0  0  0  0
 17 22  2  0  0  0  0
 17 18  1  0  0  0  0
 18 19  2  0  0  0  0
 19 20  1  0  0  0  0
 19 41  1  0  0  0  0
 20 42  1  0  0  0  0
 21 23  1  0  0  0  0
 21 20  2  0  0  0  0
 22 21  1  0  0  0  0
 24 28  1  0  0  0  0
 24 23  1  0  0  0  0
 24 29  1  0  0  0  0
 25 24  1  0  0  0  0
 26 25  1  0  0  0  0
 27 25  1  0  0  0  0
 30  1  1  0  0  0  0
 33  4  1  0  0  0  0
 34  7  1  0  0  0  0
 35  7  1  0  0  0  0
 39 13  1  0  0  0  0
 40 18  1  0  0  0  0
 43 22  1  0  0  0  0
 44 25  1  0  0  0  0
M  END
