8855589.xyz
 OpenBabel08132112143D
Brc1ccc(cc1)OCc1cccc(c1)c1nnc(n1CCCN1CCOCC1)S
 55 58  0  0  0  0  0  0  0  0999 V2000
  -10.9015    1.8719    2.7670 Br  0  0  0  0  0  0  0  0  0  0  0  0
   -9.1876    1.6134    3.5618 C   0  0  0  0  0  0  0  0  0  0  0  0
   -8.0930    2.3603    3.1081 C   0  0  0  0  0  0  0  0  0  0  0  0
   -6.8409    2.1720    3.6844 C   0  0  0  0  0  0  0  0  0  0  0  0
   -6.6789    1.2359    4.7216 C   0  0  0  0  0  0  0  0  0  0  0  0
   -7.7760    0.4924    5.1734 C   0  0  0  0  0  0  0  0  0  0  0  0
   -9.0332    0.6839    4.5882 C   0  0  0  0  0  0  0  0  0  0  0  0
   -5.4225    1.1259    5.2240 O   0  0  0  0  0  0  0  0  0  0  0  0
   -5.0801    0.0964    6.1510 C   0  0  0  0  0  0  0  0  0  0  0  0
   -3.5825    0.1690    6.2723 C   0  0  0  0  0  0  0  0  0  0  0  0
   -2.9536    0.7531    7.3733 C   0  0  0  0  0  0  0  0  0  0  0  0
   -1.5743    0.9954    7.3384 C   0  0  0  0  0  0  0  0  0  0  0  0
   -0.8423    0.7303    6.1852 C   0  0  0  0  0  0  0  0  0  0  0  0
   -1.4694    0.1618    5.0565 C   0  0  0  0  0  0  0  0  0  0  0  0
   -2.8230   -0.1776    5.1484 C   0  0  0  0  0  0  0  0  0  0  0  0
   -0.6807    0.0256    3.8263 C   0  0  0  0  0  0  0  0  0  0  0  0
    0.6369    0.0223    3.8160 N   0  0  0  0  0  0  0  0  0  0  0  0
    1.0686    0.0000    2.5235 N   0  0  0  0  0  0  0  0  0  0  0  0
    0.0000    0.0000    1.7613 C   0  0  0  0  0  0  0  0  0  0  0  0
   -1.1493    0.0117    2.5138 N   0  0  0  0  0  0  0  0  0  0  0  0
   -2.5052    0.0484    1.9561 C   0  0  0  0  0  0  0  0  0  0  0  0
   -3.3529    1.2593    2.3440 C   0  0  0  0  0  0  0  0  0  0  0  0
   -2.7162    2.6255    2.0934 C   0  0  0  0  0  0  0  0  0  0  0  0
   -3.4505    3.6662    2.7986 N   0  0  0  0  0  0  0  0  0  0  0  0
   -3.3131    5.0211    2.2482 C   0  0  0  0  0  0  0  0  0  0  0  0
   -2.3647    5.8876    3.0711 C   0  0  0  0  0  0  0  0  0  0  0  0
   -2.8219    6.0377    4.4042 O   0  0  0  0  0  0  0  0  0  0  0  0
   -3.5968    4.9522    4.8871 C   0  0  0  0  0  0  0  0  0  0  0  0
   -3.2112    3.6292    4.2483 C   0  0  0  0  0  0  0  0  0  0  0  0
    0.0000    0.0000    0.0000 S   0  0  0  0  0  0  0  0  0  0  0  0
   -8.2216    3.0850    2.3027 H   0  0  0  0  0  0  0  0  0  0  0  0
   -5.9710    2.7360    3.3359 H   0  0  0  0  0  0  0  0  0  0  0  0
   -7.6707   -0.2322    5.9810 H   0  0  0  0  0  0  0  0  0  0  0  0
   -9.8903    0.1070    4.9385 H   0  0  0  0  0  0  0  0  0  0  0  0
   -5.4110   -0.8820    5.7581 H   0  0  0  0  0  0  0  0  0  0  0  0
   -5.5783    0.2676    7.1209 H   0  0  0  0  0  0  0  0  0  0  0  0
   -3.5419    1.0409    8.2482 H   0  0  0  0  0  0  0  0  0  0  0  0
   -1.0774    1.4395    8.2038 H   0  0  0  0  0  0  0  0  0  0  0  0
    0.2188    0.9729    6.1193 H   0  0  0  0  0  0  0  0  0  0  0  0
   -3.3265   -0.6722    4.3200 H   0  0  0  0  0  0  0  0  0  0  0  0
   -2.3835    0.0152    0.8639 H   0  0  0  0  0  0  0  0  0  0  0  0
   -3.0284   -0.8815    2.2288 H   0  0  0  0  0  0  0  0  0  0  0  0
   -3.6335    1.1941    3.3995 H   0  0  0  0  0  0  0  0  0  0  0  0
   -4.3000    1.1894    1.7853 H   0  0  0  0  0  0  0  0  0  0  0  0
   -1.6465    2.6012    2.4025 H   0  0  0  0  0  0  0  0  0  0  0  0
   -2.7245    2.8471    1.0144 H   0  0  0  0  0  0  0  0  0  0  0  0
   -4.3003    5.5164    2.2161 H   0  0  0  0  0  0  0  0  0  0  0  0
   -2.9566    4.9618    1.2087 H   0  0  0  0  0  0  0  0  0  0  0  0
   -1.3486    5.4438    3.0586 H   0  0  0  0  0  0  0  0  0  0  0  0
   -2.2868    6.8968    2.6339 H   0  0  0  0  0  0  0  0  0  0  0  0
   -3.4395    4.8965    5.9756 H   0  0  0  0  0  0  0  0  0  0  0  0
   -4.6761    5.1407    4.7191 H   0  0  0  0  0  0  0  0  0  0  0  0
   -3.7924    2.8220    4.7183 H   0  0  0  0  0  0  0  0  0  0  0  0
   -2.1409    3.4253    4.4716 H   0  0  0  0  0  0  0  0  0  0  0  0
    1.3509    0.0263   -0.0445 H   0  0  0  0  0  0  0  0  0  0  0  0
  1  2  1  0  0  0  0
  2  7  1  0  0  0  0
  3  2  2  0  0  0  0
  3  4  1  0  0  0  0
  4  5  2  0  0  0  0
  5  6  1  0  0  0  0
  5  8  1  0  0  0  0
  6 33  1  0  0  0  0
  7 34  1  0  0  0  0
  7  6  2  0  0  0  0
  8  9  1  0  0  0  0
  9 10  1  0  0  0  0
  9 36  1  0  0  0  0
 10 11  2  0  0  0  0
 11 37  1  0  0  0  0
 12 11  1  0  0  0  0
 12 38  1  0  0  0  0
 13 12  2  0  0  0  0
 14 15  2  0  0  0  0
 14 13  1  0  0  0  0
 15 10  1  0  0  0  0
 16 14  1  0  0  0  0
 17 16  2  0  0  0  0
 18 17  1  0  0  0  0
 19 20  1  0  0  0  0
 19 18  2  0  0  0  0
 20 16  1  0  0  0  0
 21 42  1  0  0  0  0
 21 22  1  0  0  0  0
 21 20  1  0  0  0  0
 22 43  1  0  0  0  0
 23 22  1  0  0  0  0
 23 45  1  0  0  0  0
 23 24  1  0  0  0  0
 24 29  1  0  0  0  0
 25 24  1  0  0  0  0
 25 26  1  0  0  0  0
 26 27  1  0  0  0  0
 27 28  1  0  0  0  0
 28 51  1  0  0  0  0
 29 54  1  0  0  0  0
 29 53  1  0  0  0  0
 29 28  1  0  0  0  0
 30 19  1  0  0  0  0
 31  3  1  0  0  0  0
 32  4  1  0  0  0  0
 35  9  1  0  0  0  0
 39 13  1  0  0  0  0
 40 15  1  0  0  0  0
 41 21  1  0  0  0  0
 44 22  1  0  0  0  0
 46 23  1  0  0  0  0
 47 25  1  0  0  0  0
 48 25  1  0  0  0  0
 49 26  1  0  0  0  0
 50 26  1  0  0  0  0
 52 28  1  0  0  0  0
 55 30  1  0  0  0  0
M  END
