8856041.xyz
 OpenBabel08132112143D
CCN(CCCn1c(S)nnc1c1cccc(c1)OC(C(F)F)(F)F)CC
 49 50  0  0  0  0  0  0  0  0999 V2000
    6.5362   -0.2658   -1.4075 C   0  0  0  0  0  0  0  0  0  0  0  0
    5.3680    0.5403   -0.8253 C   0  0  0  0  0  0  0  0  0  0  0  0
    4.1716   -0.2166   -0.4724 N   0  0  0  0  0  0  0  0  0  0  0  0
    4.3413   -1.0993    0.6732 C   0  0  0  0  0  0  0  0  0  0  0  0
    3.0501   -1.2723    1.4803 C   0  0  0  0  0  0  0  0  0  0  0  0
    2.5048    0.0762    1.9500 C   0  0  0  0  0  0  0  0  0  0  0  0
    1.1556    0.0000    2.4983 N   0  0  0  0  0  0  0  0  0  0  0  0
   -0.0000   -0.0000    1.7612 C   0  0  0  0  0  0  0  0  0  0  0  0
    0.0000    0.0000    0.0000 S   0  0  0  0  0  0  0  0  0  0  0  0
   -1.0583    0.0186    2.5400 N   0  0  0  0  0  0  0  0  0  0  0  0
   -0.6072    0.0378    3.8287 N   0  0  0  0  0  0  0  0  0  0  0  0
    0.7104    0.0183    3.8109 C   0  0  0  0  0  0  0  0  0  0  0  0
    1.5518    0.0713    5.0109 C   0  0  0  0  0  0  0  0  0  0  0  0
    1.0673    0.7579    6.1407 C   0  0  0  0  0  0  0  0  0  0  0  0
    1.8375    0.8448    7.2982 C   0  0  0  0  0  0  0  0  0  0  0  0
    3.1065    0.2592    7.3572 C   0  0  0  0  0  0  0  0  0  0  0  0
    3.5707   -0.4288    6.2396 C   0  0  0  0  0  0  0  0  0  0  0  0
    2.8085   -0.5477    5.0812 C   0  0  0  0  0  0  0  0  0  0  0  0
    4.8025   -1.0877    6.2927 O   0  0  0  0  0  0  0  0  0  0  0  0
    5.9429   -0.4099    6.0055 C   0  0  0  0  0  0  0  0  0  0  0  0
    6.0988    0.0747    4.5461 C   0  0  0  0  0  0  0  0  0  0  0  0
    5.2539    1.0960    4.2840 F   0  0  0  0  0  0  0  0  0  0  0  0
    5.8029   -0.9484    3.7090 F   0  0  0  0  0  0  0  0  0  0  0  0
    6.0982    0.6767    6.8036 F   0  0  0  0  0  0  0  0  0  0  0  0
    6.9618   -1.2513    6.2479 F   0  0  0  0  0  0  0  0  0  0  0  0
    3.4734   -0.8475   -1.5868 C   0  0  0  0  0  0  0  0  0  0  0  0
    2.9683    0.1391   -2.6337 C   0  0  0  0  0  0  0  0  0  0  0  0
    7.3947    0.3943   -1.6099 H   0  0  0  0  0  0  0  0  0  0  0  0
    6.2643   -0.7544   -2.3564 H   0  0  0  0  0  0  0  0  0  0  0  0
    6.8744   -1.0502   -0.7114 H   0  0  0  0  0  0  0  0  0  0  0  0
    5.0823    1.3329   -1.5349 H   0  0  0  0  0  0  0  0  0  0  0  0
    5.7041    1.0642    0.0854 H   0  0  0  0  0  0  0  0  0  0  0  0
    4.7211   -2.1042    0.3873 H   0  0  0  0  0  0  0  0  0  0  0  0
    5.1052   -0.6609    1.3332 H   0  0  0  0  0  0  0  0  0  0  0  0
    2.2804   -1.7761    0.8746 H   0  0  0  0  0  0  0  0  0  0  0  0
    3.2454   -1.9374    2.3368 H   0  0  0  0  0  0  0  0  0  0  0  0
    3.1603    0.5308    2.7044 H   0  0  0  0  0  0  0  0  0  0  0  0
    2.4848    0.7598    1.0886 H   0  0  0  0  0  0  0  0  0  0  0  0
   -1.3484    0.0877   -0.0510 H   0  0  0  0  0  0  0  0  0  0  0  0
    0.0802    1.2177    6.0841 H   0  0  0  0  0  0  0  0  0  0  0  0
    1.4513    1.3817    8.1673 H   0  0  0  0  0  0  0  0  0  0  0  0
    3.7288    0.3231    8.2501 H   0  0  0  0  0  0  0  0  0  0  0  0
    3.2115   -1.1327    4.2585 H   0  0  0  0  0  0  0  0  0  0  0  0
    7.1356    0.4053    4.3678 H   0  0  0  0  0  0  0  0  0  0  0  0
    2.6040   -1.3803   -1.1732 H   0  0  0  0  0  0  0  0  0  0  0  0
    4.0978   -1.6283   -2.0774 H   0  0  0  0  0  0  0  0  0  0  0  0
    2.3493   -0.3847   -3.3784 H   0  0  0  0  0  0  0  0  0  0  0  0
    2.3532    0.9204   -2.1606 H   0  0  0  0  0  0  0  0  0  0  0  0
    3.7889    0.6307   -3.1786 H   0  0  0  0  0  0  0  0  0  0  0  0
  1  2  1  0  0  0  0
  1 30  1  0  0  0  0
  2  3  1  0  0  0  0
  2 32  1  0  0  0  0
  3  4  1  0  0  0  0
  4 34  1  0  0  0  0
  4  5  1  0  0  0  0
  5  6  1  0  0  0  0
  5 36  1  0  0  0  0
  6  7  1  0  0  0  0
  6 37  1  0  0  0  0
  7 12  1  0  0  0  0
  8  7  1  0  0  0  0
  8 10  2  0  0  0  0
  9  8  1  0  0  0  0
 10 11  1  0  0  0  0
 12 11  2  0  0  0  0
 12 13  1  0  0  0  0
 13 18  2  0  0  0  0
 13 14  1  0  0  0  0
 14 15  2  0  0  0  0
 15 16  1  0  0  0  0
 15 41  1  0  0  0  0
 16 42  1  0  0  0  0
 17 19  1  0  0  0  0
 17 16  2  0  0  0  0
 18 17  1  0  0  0  0
 20 25  1  0  0  0  0
 20 19  1  0  0  0  0
 20 24  1  0  0  0  0
 21 20  1  0  0  0  0
 22 21  1  0  0  0  0
 23 21  1  0  0  0  0
 26 45  1  0  0  0  0
 26  3  1  0  0  0  0
 27 48  1  0  0  0  0
 27 26  1  0  0  0  0
 28  1  1  0  0  0  0
 29  1  1  0  0  0  0
 31  2  1  0  0  0  0
 33  4  1  0  0  0  0
 35  5  1  0  0  0  0
 38  6  1  0  0  0  0
 39  9  1  0  0  0  0
 40 14  1  0  0  0  0
 43 18  1  0  0  0  0
 44 21  1  0  0  0  0
 46 26  1  0  0  0  0
 47 27  1  0  0  0  0
 49 27  1  0  0  0  0
M  END
