933820.xyz
 OpenBabel08132112143D
Clc1ccc(c(c1)Cl)n1c(S)nnc1c1cccc(c1)Cl
 29 31  0  0  0  0  0  0  0  0999 V2000
    6.6450    0.0175    0.1553 Cl  0  0  0  0  0  0  0  0  0  0  0  0
    5.0420    0.0150    0.8317 C   0  0  0  0  0  0  0  0  0  0  0  0
    4.4461    1.2253    1.2012 C   0  0  0  0  0  0  0  0  0  0  0  0
    3.1629    1.2096    1.7425 C   0  0  0  0  0  0  0  0  0  0  0  0
    2.4771    0.0052    1.9229 C   0  0  0  0  0  0  0  0  0  0  0  0
    3.0910   -1.2012    1.5430 C   0  0  0  0  0  0  0  0  0  0  0  0
    4.3747   -1.2017    0.9961 C   0  0  0  0  0  0  0  0  0  0  0  0
    2.2613   -2.7032    1.7994 Cl  0  0  0  0  0  0  0  0  0  0  0  0
    1.1719   -0.0000    2.4801 N   0  0  0  0  0  0  0  0  0  0  0  0
    0.0000    0.0000    1.7558 C   0  0  0  0  0  0  0  0  0  0  0  0
    0.0000    0.0000    0.0000 S   0  0  0  0  0  0  0  0  0  0  0  0
   -1.0365    0.0109    2.5573 N   0  0  0  0  0  0  0  0  0  0  0  0
   -0.5608    0.0122    3.8380 N   0  0  0  0  0  0  0  0  0  0  0  0
    0.7537    0.0009    3.8094 C   0  0  0  0  0  0  0  0  0  0  0  0
    1.6072    0.0139    5.0022 C   0  0  0  0  0  0  0  0  0  0  0  0
    1.0166    0.3851    6.2260 C   0  0  0  0  0  0  0  0  0  0  0  0
    1.7738    0.4019    7.3939 C   0  0  0  0  0  0  0  0  0  0  0  0
    3.1288    0.0554    7.3756 C   0  0  0  0  0  0  0  0  0  0  0  0
    3.7061   -0.3187    6.1619 C   0  0  0  0  0  0  0  0  0  0  0  0
    2.9639   -0.3484    4.9803 C   0  0  0  0  0  0  0  0  0  0  0  0
    5.3951   -0.7693    6.1072 Cl  0  0  0  0  0  0  0  0  0  0  0  0
    4.9856    2.1625    1.0644 H   0  0  0  0  0  0  0  0  0  0  0  0
    2.6743    2.1382    2.0415 H   0  0  0  0  0  0  0  0  0  0  0  0
    4.8481   -2.1400    0.7101 H   0  0  0  0  0  0  0  0  0  0  0  0
   -1.3514   -0.0070   -0.0501 H   0  0  0  0  0  0  0  0  0  0  0  0
   -0.0401    0.6529    6.2325 H   0  0  0  0  0  0  0  0  0  0  0  0
    1.3071    0.6928    8.3378 H   0  0  0  0  0  0  0  0  0  0  0  0
    3.7314    0.0707    8.2845 H   0  0  0  0  0  0  0  0  0  0  0  0
    3.4573   -0.6700    4.0681 H   0  0  0  0  0  0  0  0  0  0  0  0
  1  2  1  0  0  0  0
  2  7  2  0  0  0  0
  2  3  1  0  0  0  0
  3  4  2  0  0  0  0
  4  5  1  0  0  0  0
  4 23  1  0  0  0  0
  5  9  1  0  0  0  0
  6  8  1  0  0  0  0
  6  5  2  0  0  0  0
  7  6  1  0  0  0  0
  9 14  1  0  0  0  0
 10  9  1  0  0  0  0
 10 12  2  0  0  0  0
 11 10  1  0  0  0  0
 12 13  1  0  0  0  0
 14 13  2  0  0  0  0
 14 15  1  0  0  0  0
 15 16  1  0  0  0  0
 16 26  1  0  0  0  0
 16 17  2  0  0  0  0
 17 27  1  0  0  0  0
 18 17  1  0  0  0  0
 18 28  1  0  0  0  0
 19 18  2  0  0  0  0
 20 15  2  0  0  0  0
 20 19  1  0  0  0  0
 21 19  1  0  0  0  0
 22  3  1  0  0  0  0
 24  7  1  0  0  0  0
 25 11  1  0  0  0  0
 29 20  1  0  0  0  0
M  END
