937098.xyz
 OpenBabel08132112143D
COc1ccc(cc1Cc1c(O)nc(nc1O)S)C(=O)C
 35 36  0  0  0  0  0  0  0  0999 V2000
   -2.3275   -3.5694    5.3461 C   0  0  0  0  0  0  0  0  0  0  0  0
   -1.5110   -2.4585    5.6376 O   0  0  0  0  0  0  0  0  0  0  0  0
   -0.3380   -2.6300    6.2855 C   0  0  0  0  0  0  0  0  0  0  0  0
    0.1406   -3.8719    6.7322 C   0  0  0  0  0  0  0  0  0  0  0  0
    1.3686   -3.9430    7.3840 C   0  0  0  0  0  0  0  0  0  0  0  0
    2.1370   -2.7910    7.6012 C   0  0  0  0  0  0  0  0  0  0  0  0
    1.6381   -1.5559    7.1487 C   0  0  0  0  0  0  0  0  0  0  0  0
    0.4130   -1.4517    6.4981 C   0  0  0  0  0  0  0  0  0  0  0  0
   -0.1128   -0.1267    5.9843 C   0  0  0  0  0  0  0  0  0  0  0  0
   -0.0912   -0.0404    4.4779 C   0  0  0  0  0  0  0  0  0  0  0  0
    1.1047   -0.0181    3.7466 C   0  0  0  0  0  0  0  0  0  0  0  0
    2.2696   -0.0051    4.4099 O   0  0  0  0  0  0  0  0  0  0  0  0
    1.1664   -0.0000    2.4136 N   0  0  0  0  0  0  0  0  0  0  0  0
   -0.0000   -0.0000    1.7709 C   0  0  0  0  0  0  0  0  0  0  0  0
   -1.2029    0.0031    2.3374 N   0  0  0  0  0  0  0  0  0  0  0  0
   -1.2395   -0.0116    3.6720 C   0  0  0  0  0  0  0  0  0  0  0  0
   -2.4514    0.0185    4.2391 O   0  0  0  0  0  0  0  0  0  0  0  0
    0.0000    0.0000    0.0000 S   0  0  0  0  0  0  0  0  0  0  0  0
    3.4521   -2.9333    8.2951 C   0  0  0  0  0  0  0  0  0  0  0  0
    3.8476   -4.0203    8.6753 O   0  0  0  0  0  0  0  0  0  0  0  0
    4.2894   -1.6852    8.5122 C   0  0  0  0  0  0  0  0  0  0  0  0
   -3.1991   -3.1749    4.8082 H   0  0  0  0  0  0  0  0  0  0  0  0
   -1.8058   -4.3009    4.7043 H   0  0  0  0  0  0  0  0  0  0  0  0
   -2.6682   -4.0783    6.2648 H   0  0  0  0  0  0  0  0  0  0  0  0
   -0.4392   -4.7807    6.5729 H   0  0  0  0  0  0  0  0  0  0  0  0
    1.7621   -4.8975    7.7379 H   0  0  0  0  0  0  0  0  0  0  0  0
    2.2184   -0.6432    7.2895 H   0  0  0  0  0  0  0  0  0  0  0  0
    0.5020    0.6822    6.4075 H   0  0  0  0  0  0  0  0  0  0  0  0
   -1.1467    0.0217    6.3240 H   0  0  0  0  0  0  0  0  0  0  0  0
    2.9698   -0.0010    3.7367 H   0  0  0  0  0  0  0  0  0  0  0  0
   -3.0886    0.0586    3.5070 H   0  0  0  0  0  0  0  0  0  0  0  0
    1.3476   -0.0048   -0.1026 H   0  0  0  0  0  0  0  0  0  0  0  0
    3.7454   -0.9484    9.1248 H   0  0  0  0  0  0  0  0  0  0  0  0
    5.2195   -1.9678    9.0206 H   0  0  0  0  0  0  0  0  0  0  0  0
    4.5261   -1.1987    7.5525 H   0  0  0  0  0  0  0  0  0  0  0  0
  1  2  1  0  0  0  0
  1 24  1  0  0  0  0
  2  3  1  0  0  0  0
  3  8  2  0  0  0  0
  3  4  1  0  0  0  0
  4  5  2  0  0  0  0
  5  6  1  0  0  0  0
  5 26  1  0  0  0  0
  6 19  1  0  0  0  0
  7 27  1  0  0  0  0
  7  6  2  0  0  0  0
  8  7  1  0  0  0  0
  9 29  1  0  0  0  0
  9 28  1  0  0  0  0
  9  8  1  0  0  0  0
 10  9  1  0  0  0  0
 11 12  1  0  0  0  0
 11 10  1  0  0  0  0
 13 11  2  0  0  0  0
 14 15  2  0  0  0  0
 14 13  2  0  0  0  0
 15 16  2  0  0  0  0
 16 17  1  0  0  0  0
 16 10  1  0  0  0  0
 18 14  1  0  0  0  0
 19 21  1  0  0  0  0
 19 20  2  0  0  0  0
 21 34  1  0  0  0  0
 21 33  1  0  0  0  0
 22  1  1  0  0  0  0
 23  1  1  0  0  0  0
 25  4  1  0  0  0  0
 30 12  1  0  0  0  0
 31 17  1  0  0  0  0
 32 18  1  0  0  0  0
 35 21  1  0  0  0  0
M  RAD  1  10   2
M  END
