957753-00-3.xyz
 OpenBabel05112214453D

 27 29  0  0  0  0  0  0  0  0999 V2000
    4.1080    3.0667    1.1902 C   0  0  0  0  0  0  0  0  0  0  0  0
    4.2032   -2.9713    1.1734 C   0  0  0  0  0  0  0  0  0  0  0  0
    2.8969    3.4908    1.7516 C   0  0  0  0  0  0  0  0  0  0  0  0
    3.0026   -3.4351    1.7260 C   0  0  0  0  0  0  0  0  0  0  0  0
    4.4012    1.7040    1.0709 C   0  0  0  0  0  0  0  0  0  0  0  0
    4.4544   -1.5999    1.0637 C   0  0  0  0  0  0  0  0  0  0  0  0
    1.9576    2.5546    2.2069 C   0  0  0  0  0  0  0  0  0  0  0  0
    2.0318   -2.5322    2.1802 C   0  0  0  0  0  0  0  0  0  0  0  0
   -0.0000   -0.0000    1.8323 C   0  0  0  0  0  0  0  0  0  0  0  0
    3.4644    0.7699    1.5210 C   0  0  0  0  0  0  0  0  0  0  0  0
    3.4858   -0.6996    1.5145 C   0  0  0  0  0  0  0  0  0  0  0  0
    2.2461    1.1983    2.0919 C   0  0  0  0  0  0  0  0  0  0  0  0
    2.2781   -1.1679    2.0745 C   0  0  0  0  0  0  0  0  0  0  0  0
    1.3958   -0.0000    2.4777 C   0  0  0  0  0  0  0  0  0  0  0  0
    0.0000    0.0000    0.0000 S   0  0  0  0  0  0  0  0  0  0  0  0
    4.8299    3.8084    0.8401 H   0  0  0  0  0  0  0  0  0  0  0  0
    2.6832    4.5589    1.8360 H   0  0  0  0  0  0  0  0  0  0  0  0
    5.3459    1.3787    0.6289 H   0  0  0  0  0  0  0  0  0  0  0  0
    1.0136    2.8913    2.6438 H   0  0  0  0  0  0  0  0  0  0  0  0
    4.9495   -3.6885    0.8233 H   0  0  0  0  0  0  0  0  0  0  0  0
    2.8214   -4.5098    1.8021 H   0  0  0  0  0  0  0  0  0  0  0  0
    5.3910   -1.2422    0.6294 H   0  0  0  0  0  0  0  0  0  0  0  0
    1.0957   -2.9015    2.6075 H   0  0  0  0  0  0  0  0  0  0  0  0
   -0.5451   -0.9142    2.1121 H   0  0  0  0  0  0  0  0  0  0  0  0
   -0.5900    0.8522    2.2024 H   0  0  0  0  0  0  0  0  0  0  0  0
    1.2426   -0.0090    3.5741 H   0  0  0  0  0  0  0  0  0  0  0  0
    0.6391    1.1838   -0.1434 H   0  0  0  0  0  0  0  0  0  0  0  0
  1  3  1  0  0  0  0
  2  4  1  0  0  0  0
  3 17  1  0  0  0  0
  3  7  2  0  0  0  0
  4 21  1  0  0  0  0
  4  8  2  0  0  0  0
  5  1  2  0  0  0  0
  5 10  1  0  0  0  0
  6  2  2  0  0  0  0
  6 11  1  0  0  0  0
  7 19  1  0  0  0  0
  8 23  1  0  0  0  0
  9 24  1  0  0  0  0
  9 25  1  0  0  0  0
  9 14  1  0  0  0  0
 10 12  2  0  0  0  0
 11 10  1  0  0  0  0
 11 13  2  0  0  0  0
 12  7  1  0  0  0  0
 12 14  1  0  0  0  0
 13  8  1  0  0  0  0
 13 14  1  0  0  0  0
 14 26  1  0  0  0  0
 15  9  1  0  0  0  0
 16  1  1  0  0  0  0
 18  5  1  0  0  0  0
 20  2  1  0  0  0  0
 22  6  1  0  0  0  0
 27 15  1  0  0  0  0
M  END
