96121798.xyz
 OpenBabel08132112143D
COc1ncc(c(n1)S)Cl
 15 15  0  0  1  0  0  0  0  0999 V2000
    2.6729   -0.0001    5.5580 C   0  0  0  0  0  0  0  0  0  0  0  0
    2.5131    0.0000    4.1446 O   0  0  0  0  0  0  0  0  0  0  0  0
    1.2750   -0.0002    3.6541 C   0  0  0  0  0  0  0  0  0  0  0  0
    0.2430   -0.0003    4.5005 N   0  0  0  0  0  0  0  0  0  0  0  0
   -0.9696   -0.0003    3.9478 C   0  0  0  0  0  0  0  0  0  0  0  0
   -1.1650   -0.0001    2.5703 C   0  0  2  0  0  0  0  0  0  0  0  0
   -0.0000   -0.0000    1.7627 C   0  0  0  0  0  0  0  0  0  0  0  0
    1.2027   -0.0000    2.3224 N   0  0  0  0  0  0  0  0  0  0  0  0
    0.0000    0.0000    0.0000 S   0  0  0  0  0  0  0  0  0  0  0  0
   -2.7804   -0.0001    1.9176 Cl  0  0  0  0  0  0  0  0  0  0  0  0
    3.7555    0.0001    5.7359 H   0  0  0  0  0  0  0  0  0  0  0  0
    2.2120   -0.8919    6.0095 H   0  0  0  0  0  0  0  0  0  0  0  0
    2.2115    0.8913    6.0098 H   0  0  0  0  0  0  0  0  0  0  0  0
   -1.8352   -0.0004    4.6188 H   0  0  0  0  0  0  0  0  0  0  0  0
   -1.3450   -0.0009   -0.1377 H   0  0  0  0  0  0  0  0  0  0  0  0
  1 11  1  0  0  0  0
  1 12  1  0  0  0  0
  1 13  1  0  0  0  0
  2  1  1  0  0  0  0
  3  2  1  0  0  0  0
  3  4  2  0  0  0  0
  5  4  2  0  0  0  0
  5 14  1  0  0  0  0
  6 10  1  1  0  0  0
  6  5  1  0  0  0  0
  7  8  2  0  0  0  0
  7  6  1  0  0  0  0
  8  3  2  0  0  0  0
  9  7  1  0  0  0  0
 15  9  1  0  0  0  0
M  RAD  1   6   2
M  END
