96133166.xyz
 OpenBabel08132112143D
SCC(=O)Nc1ccc(cc1I)Cl
 20 20  0  0  0  0  0  0  0  0999 V2000
    0.0000    0.0000    0.0000 S   0  0  0  0  0  0  0  0  0  0  0  0
   -0.0000    0.0000    1.8299 C   0  0  0  0  0  0  0  0  0  0  0  0
    1.3472   -0.0000    2.5636 C   0  0  0  0  0  0  0  0  0  0  0  0
    1.3791   -0.3087    3.7405 O   0  0  0  0  0  0  0  0  0  0  0  0
    2.4204    0.3940    1.8113 N   0  0  0  0  0  0  0  0  0  0  0  0
    3.7563    0.5287    2.2019 C   0  0  0  0  0  0  0  0  0  0  0  0
    4.1800    0.3015    3.5265 C   0  0  0  0  0  0  0  0  0  0  0  0
    5.5159    0.4449    3.8900 C   0  0  0  0  0  0  0  0  0  0  0  0
    6.4623    0.8204    2.9355 C   0  0  0  0  0  0  0  0  0  0  0  0
    6.0774    1.0524    1.6138 C   0  0  0  0  0  0  0  0  0  0  0  0
    4.7370    0.9048    1.2573 C   0  0  0  0  0  0  0  0  0  0  0  0
    4.2140    1.2639   -0.7781 I   0  0  0  0  0  0  0  0  0  0  0  0
    8.1393    1.0025    3.3865 Cl  0  0  0  0  0  0  0  0  0  0  0  0
    0.4872   -1.2532   -0.1561 H   0  0  0  0  0  0  0  0  0  0  0  0
   -0.5333    0.9197    2.1196 H   0  0  0  0  0  0  0  0  0  0  0  0
   -0.5836   -0.8401    2.2294 H   0  0  0  0  0  0  0  0  0  0  0  0
    2.2086    0.6014    0.8342 H   0  0  0  0  0  0  0  0  0  0  0  0
    3.4327    0.0077    4.2598 H   0  0  0  0  0  0  0  0  0  0  0  0
    5.8249    0.2648    4.9203 H   0  0  0  0  0  0  0  0  0  0  0  0
    6.8222    1.3438    0.8741 H   0  0  0  0  0  0  0  0  0  0  0  0
  1  2  1  0  0  0  0
  2 15  1  0  0  0  0
  2 16  1  0  0  0  0
  2  3  1  0  0  0  0
  3  4  2  0  0  0  0
  5  6  1  0  0  0  0
  5  3  1  0  0  0  0
  6  7  2  0  0  0  0
  7  8  1  0  0  0  0
  7 18  1  0  0  0  0
  8 19  1  0  0  0  0
  9 13  1  0  0  0  0
  9  8  2  0  0  0  0
 10  9  1  0  0  0  0
 11 10  2  0  0  0  0
 11  6  1  0  0  0  0
 12 11  1  0  0  0  0
 14  1  1  0  0  0  0
 17  5  1  0  0  0  0
 20 10  1  0  0  0  0
M  END
