96132921.xyz
 OpenBabel08132112143D
Cc1sc(c(c1)C)S
 16 16  0  0  0  0  0  0  0  0999 V2000
    1.2218   -0.0000    5.5516 C   0  0  0  0  0  0  0  0  0  0  0  0
    0.5341   -0.0000    4.2223 C   0  0  0  0  0  0  0  0  0  0  0  0
    1.4524   -0.0000    2.7326 S   0  0  0  0  0  0  0  0  0  0  0  0
    0.0000   -0.0000    1.7690 C   0  0  0  0  0  0  0  0  0  0  0  0
   -1.1367    0.0000    2.5484 C   0  0  0  0  0  0  0  0  0  0  0  0
   -0.8086   -0.0000    3.9458 C   0  0  0  0  0  0  0  0  0  0  0  0
   -2.5312    0.0000    1.9892 C   0  0  0  0  0  0  0  0  0  0  0  0
    0.0000    0.0000    0.0000 S   0  0  0  0  0  0  0  0  0  0  0  0
    1.8612    0.8885    5.6873 H   0  0  0  0  0  0  0  0  0  0  0  0
    1.8616   -0.8882    5.6872 H   0  0  0  0  0  0  0  0  0  0  0  0
    0.4714   -0.0002    6.3558 H   0  0  0  0  0  0  0  0  0  0  0  0
   -1.5677   -0.0000    4.7311 H   0  0  0  0  0  0  0  0  0  0  0  0
   -2.7131   -0.8867    1.3580 H   0  0  0  0  0  0  0  0  0  0  0  0
   -2.7130    0.8867    1.3579 H   0  0  0  0  0  0  0  0  0  0  0  0
   -3.2811    0.0001    2.7930 H   0  0  0  0  0  0  0  0  0  0  0  0
    1.3425   -0.0003   -0.1549 H   0  0  0  0  0  0  0  0  0  0  0  0
  1 10  1  0  0  0  0
  1  9  1  0  0  0  0
  1 11  1  0  0  0  0
  2  1  1  0  0  0  0
  3  2  1  0  0  0  0
  4  5  2  0  0  0  0
  4  3  1  0  0  0  0
  5  6  1  0  0  0  0
  6  2  2  0  0  0  0
  6 12  1  0  0  0  0
  7  5  1  0  0  0  0
  7 15  1  0  0  0  0
  8  4  1  0  0  0  0
 13  7  1  0  0  0  0
 14  7  1  0  0  0  0
 16  8  1  0  0  0  0
M  END
