96228661.xyz
 OpenBabel08132112143D
Cc1nnc(n1Cc1ccno1)S
 21 22  0  0  0  0  0  0  0  0999 V2000
    1.6529    0.0452    4.9840 C   0  0  0  0  0  0  0  0  0  0  0  0
    0.7355    0.0154    3.8129 C   0  0  0  0  0  0  0  0  0  0  0  0
   -0.5728    0.0017    3.8467 N   0  0  0  0  0  0  0  0  0  0  0  0
   -1.0423   -0.0064    2.5508 N   0  0  0  0  0  0  0  0  0  0  0  0
   -0.0000   -0.0000    1.7620 C   0  0  0  0  0  0  0  0  0  0  0  0
    1.1633    0.0000    2.4952 N   0  0  0  0  0  0  0  0  0  0  0  0
    2.5236    0.0804    1.9882 C   0  0  0  0  0  0  0  0  0  0  0  0
    2.9864    1.4889    1.7924 C   0  0  0  0  0  0  0  0  0  0  0  0
    2.9579    2.3527    0.7351 C   0  0  0  0  0  0  0  0  0  0  0  0
    3.4962    3.5555    1.2818 C   0  0  0  0  0  0  0  0  0  0  0  0
    3.8157    3.4210    2.5459 N   0  0  0  0  0  0  0  0  0  0  0  0
    3.4940    2.1169    2.8712 O   0  0  0  0  0  0  0  0  0  0  0  0
    0.0000    0.0000    0.0000 S   0  0  0  0  0  0  0  0  0  0  0  0
    1.0430    0.0950    5.8947 H   0  0  0  0  0  0  0  0  0  0  0  0
    2.2801   -0.8609    5.0351 H   0  0  0  0  0  0  0  0  0  0  0  0
    2.3223    0.9188    4.9493 H   0  0  0  0  0  0  0  0  0  0  0  0
    3.1916   -0.4315    2.6945 H   0  0  0  0  0  0  0  0  0  0  0  0
    2.5715   -0.4597    1.0320 H   0  0  0  0  0  0  0  0  0  0  0  0
    2.5936    2.1645   -0.2707 H   0  0  0  0  0  0  0  0  0  0  0  0
    3.6617    4.5146    0.7908 H   0  0  0  0  0  0  0  0  0  0  0  0
   -1.3442   -0.1279   -0.0599 H   0  0  0  0  0  0  0  0  0  0  0  0
  1 15  1  0  0  0  0
  1 14  1  0  0  0  0
  2  3  2  0  0  0  0
  2  1  1  0  0  0  0
  4  3  1  0  0  0  0
  5  6  1  0  0  0  0
  5  4  2  0  0  0  0
  6  2  1  0  0  0  0
  7  6  1  0  0  0  0
  7 17  1  0  0  0  0
  8  7  1  0  0  0  0
  8 12  1  0  0  0  0
  9 10  1  0  0  0  0
  9  8  2  0  0  0  0
 10 11  2  0  0  0  0
 11 12  1  0  0  0  0
 13  5  1  0  0  0  0
 16  1  1  0  0  0  0
 18  7  1  0  0  0  0
 19  9  1  0  0  0  0
 20 10  1  0  0  0  0
 21 13  1  0  0  0  0
M  END
