96299534.xyz
 OpenBabel08132112143D
SCCC1CCNCC1
 24 24  0  0  0  0  0  0  0  0999 V2000
    0.0000    0.0000    0.0000 S   0  0  0  0  0  0  0  0  0  0  0  0
   -0.0000    0.0000    1.8388 C   0  0  0  0  0  0  0  0  0  0  0  0
    1.3573    0.0000    2.5424 C   0  0  0  0  0  0  0  0  0  0  0  0
    2.2604   -1.2236    2.3045 C   0  0  0  0  0  0  0  0  0  0  0  0
    3.1877   -1.0752    1.0860 C   0  0  0  0  0  0  0  0  0  0  0  0
    4.1084   -2.2846    0.9336 C   0  0  0  0  0  0  0  0  0  0  0  0
    4.8812   -2.4807    2.1518 N   0  0  0  0  0  0  0  0  0  0  0  0
    4.0354   -2.7330    3.3077 C   0  0  0  0  0  0  0  0  0  0  0  0
    3.1099   -1.5405    3.5468 C   0  0  0  0  0  0  0  0  0  0  0  0
    0.6749    1.1632   -0.1548 H   0  0  0  0  0  0  0  0  0  0  0  0
   -0.6060    0.8519    2.1835 H   0  0  0  0  0  0  0  0  0  0  0  0
   -0.5603   -0.9131    2.0971 H   0  0  0  0  0  0  0  0  0  0  0  0
    1.1375    0.0729    3.6231 H   0  0  0  0  0  0  0  0  0  0  0  0
    1.9082    0.9240    2.2904 H   0  0  0  0  0  0  0  0  0  0  0  0
    1.6066   -2.0987    2.1212 H   0  0  0  0  0  0  0  0  0  0  0  0
    3.8110   -0.1738    1.2237 H   0  0  0  0  0  0  0  0  0  0  0  0
    2.5919   -0.9341    0.1733 H   0  0  0  0  0  0  0  0  0  0  0  0
    4.8021   -2.1260    0.0920 H   0  0  0  0  0  0  0  0  0  0  0  0
    3.4854   -3.1738    0.6755 H   0  0  0  0  0  0  0  0  0  0  0  0
    5.5575   -3.2315    2.0321 H   0  0  0  0  0  0  0  0  0  0  0  0
    4.6738   -2.8999    4.1906 H   0  0  0  0  0  0  0  0  0  0  0  0
    3.4058   -3.6469    3.1861 H   0  0  0  0  0  0  0  0  0  0  0  0
    2.4564   -1.7433    4.4124 H   0  0  0  0  0  0  0  0  0  0  0  0
    3.7243   -0.6582    3.7988 H   0  0  0  0  0  0  0  0  0  0  0  0
  1  2  1  0  0  0  0
  2 12  1  0  0  0  0
  2 11  1  0  0  0  0
  2  3  1  0  0  0  0
  3 13  1  0  0  0  0
  4  3  1  0  0  0  0
  4  9  1  0  0  0  0
  5 16  1  0  0  0  0
  5  4  1  0  0  0  0
  6  5  1  0  0  0  0
  6  7  1  0  0  0  0
  7  8  1  0  0  0  0
  8  9  1  0  0  0  0
  8 21  1  0  0  0  0
  9 24  1  0  0  0  0
  9 23  1  0  0  0  0
 10  1  1  0  0  0  0
 14  3  1  0  0  0  0
 15  4  1  0  0  0  0
 17  5  1  0  0  0  0
 18  6  1  0  0  0  0
 19  6  1  0  0  0  0
 20  7  1  0  0  0  0
 22  8  1  0  0  0  0
M  END
