96322507.xyz
 OpenBabel08132112143D
Brc1ccc(c(c1)S)O
 14 14  0  0  0  0  0  0  0  0999 V2000
    2.9435    0.0003    4.7415 Br  0  0  0  0  0  0  0  0  0  0  0  0
    1.2597   -0.0001    3.8465 C   0  0  0  0  0  0  0  0  0  0  0  0
    0.0812   -0.0002    4.5924 C   0  0  0  0  0  0  0  0  0  0  0  0
   -1.1415   -0.0002    3.9178 C   0  0  0  0  0  0  0  0  0  0  0  0
   -1.1973   -0.0001    2.5216 C   0  0  0  0  0  0  0  0  0  0  0  0
    0.0000    0.0000    1.7744 C   0  0  0  0  0  0  0  0  0  0  0  0
    1.2262   -0.0000    2.4511 C   0  0  0  0  0  0  0  0  0  0  0  0
    0.0000    0.0000    0.0000 S   0  0  0  0  0  0  0  0  0  0  0  0
   -2.3734    0.0001    1.8366 O   0  0  0  0  0  0  0  0  0  0  0  0
    0.1123   -0.0003    5.6821 H   0  0  0  0  0  0  0  0  0  0  0  0
   -2.0745   -0.0003    4.4900 H   0  0  0  0  0  0  0  0  0  0  0  0
    2.1572    0.0002    1.8822 H   0  0  0  0  0  0  0  0  0  0  0  0
   -1.3435    0.0020   -0.1321 H   0  0  0  0  0  0  0  0  0  0  0  0
   -3.1131    0.0003    2.4574 H   0  0  0  0  0  0  0  0  0  0  0  0
  2  3  2  0  0  0  0
  2  1  1  0  0  0  0
  3 10  1  0  0  0  0
  4 11  1  0  0  0  0
  4  3  1  0  0  0  0
  5  4  2  0  0  0  0
  6  7  2  0  0  0  0
  6  5  1  0  0  0  0
  7  2  1  0  0  0  0
  8  6  1  0  0  0  0
  9 14  1  0  0  0  0
  9  5  1  0  0  0  0
 12  7  1  0  0  0  0
 13  8  1  0  0  0  0
M  END
