96326787.xyz
 OpenBabel08132112143D
Sc1snc(n1)C(F)(F)F
 11 11  0  0  0  0  0  0  0  0999 V2000
    0.0000    0.0000    0.0000 S   0  0  0  0  0  0  0  0  0  0  0  0
    0.0000   -0.0000    1.7496 C   0  0  0  0  0  0  0  0  0  0  0  0
    1.4700   -0.0000    2.7079 S   0  0  0  0  0  0  0  0  0  0  0  0
    0.5940    0.0002    4.1293 N   0  0  0  0  0  0  0  0  0  0  0  0
   -0.6753   -0.0005    3.8133 C   0  0  0  0  0  0  0  0  0  0  0  0
   -1.0658   -0.0006    2.5075 N   0  0  0  0  0  0  0  0  0  0  0  0
   -1.7116   -0.0004    4.9254 C   0  0  0  0  0  0  0  0  0  0  0  0
   -2.9491   -0.0026    4.4280 F   0  0  0  0  0  0  0  0  0  0  0  0
   -1.5739    1.0829    5.7006 F   0  0  0  0  0  0  0  0  0  0  0  0
   -1.5712   -1.0814    5.7034 F   0  0  0  0  0  0  0  0  0  0  0  0
   -1.3508    0.0000   -0.0803 H   0  0  0  0  0  0  0  0  0  0  0  0
  1  2  1  0  0  0  0
  2  6  2  0  0  0  0
  2  3  1  0  0  0  0
  3  4  1  0  0  0  0
  5  4  2  0  0  0  0
  5  7  1  0  0  0  0
  6  5  2  0  0  0  0
  7  9  1  0  0  0  0
  7 10  1  0  0  0  0
  8  7  1  0  0  0  0
 11  1  1  0  0  0  0
M  END
