96397942.xyz
 OpenBabel08132112143D
CNC(=O)c1cnc([nH]1)S
 17 17  0  0  1  0  0  0  0  0999 V2000
   -2.4512   -0.0018    7.2182 C   0  0  0  0  0  0  0  0  0  0  0  0
   -1.5006   -0.0023    6.1288 N   0  0  0  0  0  0  0  0  0  0  0  0
   -1.8848   -0.0006    4.8206 C   0  0  0  0  0  0  0  0  0  0  0  0
   -3.0564    0.0007    4.4546 O   0  0  0  0  0  0  0  0  0  0  0  0
   -0.7974   -0.0005    3.8234 C   0  0  2  0  0  0  0  0  0  0  0  0
    0.5873   -0.0003    3.8224 C   0  0  0  0  0  0  0  0  0  0  0  0
    1.0688    0.0000    2.5412 N   0  0  0  0  0  0  0  0  0  0  0  0
   -0.0000    0.0000    1.7618 C   0  0  0  0  0  0  0  0  0  0  0  0
   -1.1488   -0.0004    2.4859 N   0  0  0  0  0  0  0  0  0  0  0  0
    0.0000    0.0000    0.0000 S   0  0  0  0  0  0  0  0  0  0  0  0
   -2.3403    0.8934    7.8534 H   0  0  0  0  0  0  0  0  0  0  0  0
   -2.3413   -0.8973    7.8532 H   0  0  0  0  0  0  0  0  0  0  0  0
   -3.4573   -0.0013    6.7798 H   0  0  0  0  0  0  0  0  0  0  0  0
   -0.5115   -0.0032    6.3419 H   0  0  0  0  0  0  0  0  0  0  0  0
    1.2645   -0.0003    4.6765 H   0  0  0  0  0  0  0  0  0  0  0  0
   -2.1160    0.0004    2.1770 H   0  0  0  0  0  0  0  0  0  0  0  0
    1.3492    0.0030   -0.0622 H   0  0  0  0  0  0  0  0  0  0  0  0
  1 12  1  0  0  0  0
  1 11  1  0  0  0  0
  2 14  1  0  0  0  0
  2  1  1  0  0  0  0
  3  2  1  0  0  0  0
  4  3  2  0  0  0  0
  5  3  1  1  0  0  0
  6  5  1  0  0  0  0
  6 15  1  0  0  0  0
  7  6  2  0  0  0  0
  8  9  1  0  0  0  0
  8  7  2  0  0  0  0
  9  5  1  0  0  0  0
 10  8  1  0  0  0  0
 13  1  1  0  0  0  0
 16  9  1  0  0  0  0
 17 10  1  0  0  0  0
M  RAD  1   5   2
M  END
