96407744.xyz
 OpenBabel08132112143D
Oc1ccc(c(c1)F)C(S)C
 20 20  0  0  1  0  0  0  0  0999 V2000
    5.3767    0.0765    3.7575 O   0  0  0  0  0  0  0  0  0  0  0  0
    4.0963    0.0882    3.3127 C   0  0  0  0  0  0  0  0  0  0  0  0
    3.3990   -1.1268    3.2774 C   0  0  0  0  0  0  0  0  0  0  0  0
    2.0805   -1.1560    2.8268 C   0  0  0  0  0  0  0  0  0  0  0  0
    1.4104    0.0000    2.3983 C   0  0  0  0  0  0  0  0  0  0  0  0
    2.1404    1.1931    2.4517 C   0  0  0  0  0  0  0  0  0  0  0  0
    3.4557    1.2631    2.8965 C   0  0  0  0  0  0  0  0  0  0  0  0
    1.5466    2.3320    2.0597 F   0  0  0  0  0  0  0  0  0  0  0  0
   -0.0000    0.0000    1.8623 C   0  0  1  0  0  0  0  0  0  0  0  0
    0.0000    0.0000    0.0000 S   0  0  0  0  0  0  0  0  0  0  0  0
   -0.8992   -1.0996    2.4198 C   0  0  0  0  0  0  0  0  0  0  0  0
    5.7394    0.9714    3.7286 H   0  0  0  0  0  0  0  0  0  0  0  0
    3.9058   -2.0342    3.6085 H   0  0  0  0  0  0  0  0  0  0  0  0
    1.5555   -2.1126    2.8095 H   0  0  0  0  0  0  0  0  0  0  0  0
    3.9597    2.2323    2.9125 H   0  0  0  0  0  0  0  0  0  0  0  0
   -0.4487    0.9798    2.0826 H   0  0  0  0  0  0  0  0  0  0  0  0
    0.6706   -1.1686   -0.1301 H   0  0  0  0  0  0  0  0  0  0  0  0
   -0.5562   -2.1000    2.1138 H   0  0  0  0  0  0  0  0  0  0  0  0
   -0.9177   -1.0666    3.5217 H   0  0  0  0  0  0  0  0  0  0  0  0
   -1.9243   -0.9765    2.0436 H   0  0  0  0  0  0  0  0  0  0  0  0
  2  1  1  0  0  0  0
  3  2  1  0  0  0  0
  3 13  1  0  0  0  0
  4  3  2  0  0  0  0
  5  6  2  0  0  0  0
  5  4  1  0  0  0  0
  6  7  1  0  0  0  0
  7 15  1  0  0  0  0
  7  2  2  0  0  0  0
  8  6  1  0  0  0  0
  9 16  1  1  0  0  0
  9  5  1  0  0  0  0
  9 11  1  0  0  0  0
 10  9  1  0  0  0  0
 11 19  1  0  0  0  0
 12  1  1  0  0  0  0
 14  4  1  0  0  0  0
 17 10  1  0  0  0  0
 18 11  1  0  0  0  0
 20 11  1  0  0  0  0
M  END
