96452085.xyz
 OpenBabel08132112143D
SCc1oncc1C(=O)O
 15 15  0  0  0  0  0  0  0  0999 V2000
    0.0000    0.0000    0.0000 S   0  0  0  0  0  0  0  0  0  0  0  0
   -0.0000   -0.0000    1.8444 C   0  0  0  0  0  0  0  0  0  0  0  0
    1.3686    0.0000    2.4219 C   0  0  0  0  0  0  0  0  0  0  0  0
    1.8749    1.1725    2.8126 O   0  0  0  0  0  0  0  0  0  0  0  0
    3.1695    1.0047    3.3040 N   0  0  0  0  0  0  0  0  0  0  0  0
    3.4151   -0.2731    3.2000 C   0  0  0  0  0  0  0  0  0  0  0  0
    2.3089   -0.9857    2.6427 C   0  0  0  0  0  0  0  0  0  0  0  0
    2.2625   -2.4262    2.3820 C   0  0  0  0  0  0  0  0  0  0  0  0
    3.1407   -3.2069    2.6575 O   0  0  0  0  0  0  0  0  0  0  0  0
    1.1091   -2.8111    1.7771 O   0  0  0  0  0  0  0  0  0  0  0  0
    0.4348   -1.2757   -0.1121 H   0  0  0  0  0  0  0  0  0  0  0  0
   -0.5202    0.9194    2.1447 H   0  0  0  0  0  0  0  0  0  0  0  0
   -0.5645   -0.8688    2.2036 H   0  0  0  0  0  0  0  0  0  0  0  0
    4.3742   -0.6787    3.5209 H   0  0  0  0  0  0  0  0  0  0  0  0
    1.1696   -3.7741    1.6556 H   0  0  0  0  0  0  0  0  0  0  0  0
  1  2  1  0  0  0  0
  2 12  1  0  0  0  0
  2 13  1  0  0  0  0
  2  3  1  0  0  0  0
  3  7  2  0  0  0  0
  3  4  1  0  0  0  0
  4  5  1  0  0  0  0
  6  5  2  0  0  0  0
  6 14  1  0  0  0  0
  7  6  1  0  0  0  0
  8  7  1  0  0  0  0
  8  9  2  0  0  0  0
 10  8  1  0  0  0  0
 11  1  1  0  0  0  0
 15 10  1  0  0  0  0
M  END
