96508965.xyz
 OpenBabel08132112143D
Sc1cc(Br)c(c(c1)C(=O)O)C
 19 19  0  0  0  0  0  0  0  0999 V2000
    0.0000    0.0000    0.0000 S   0  0  0  0  0  0  0  0  0  0  0  0
   -0.0000   -0.0000    1.7772 C   0  0  0  0  0  0  0  0  0  0  0  0
   -1.2354   -0.0001    2.4351 C   0  0  0  0  0  0  0  0  0  0  0  0
   -1.2842    0.0001    3.8294 C   0  0  0  0  0  0  0  0  0  0  0  0
   -3.0416   -0.0002    4.5935 Br  0  0  0  0  0  0  0  0  0  0  0  0
   -0.1328    0.0003    4.6419 C   0  0  0  0  0  0  0  0  0  0  0  0
    1.1067    0.0001    3.9471 C   0  0  0  0  0  0  0  0  0  0  0  0
    1.1654    0.0000    2.5453 C   0  0  0  0  0  0  0  0  0  0  0  0
    2.4006    0.0000    4.6965 C   0  0  0  0  0  0  0  0  0  0  0  0
    2.5324    0.0005    5.8986 O   0  0  0  0  0  0  0  0  0  0  0  0
    3.4775   -0.0008    3.8770 O   0  0  0  0  0  0  0  0  0  0  0  0
   -0.2147    0.0008    6.1443 C   0  0  0  0  0  0  0  0  0  0  0  0
    1.3427   -0.0012   -0.1504 H   0  0  0  0  0  0  0  0  0  0  0  0
   -2.1658   -0.0002    1.8657 H   0  0  0  0  0  0  0  0  0  0  0  0
    2.1427   -0.0001    2.0659 H   0  0  0  0  0  0  0  0  0  0  0  0
    4.2550   -0.0008    4.4595 H   0  0  0  0  0  0  0  0  0  0  0  0
   -1.2569    0.0008    6.4797 H   0  0  0  0  0  0  0  0  0  0  0  0
    0.2999   -0.8742    6.5657 H   0  0  0  0  0  0  0  0  0  0  0  0
    0.2996    0.8764    6.5650 H   0  0  0  0  0  0  0  0  0  0  0  0
  1  2  1  0  0  0  0
  2  3  2  0  0  0  0
  2  8  1  0  0  0  0
  3  4  1  0  0  0  0
  4  5  1  0  0  0  0
  4  6  2  0  0  0  0
  6 12  1  0  0  0  0
  7  6  1  0  0  0  0
  7  9  1  0  0  0  0
  8  7  2  0  0  0  0
  9 10  2  0  0  0  0
 11 16  1  0  0  0  0
 11  9  1  0  0  0  0
 12 17  1  0  0  0  0
 12 19  1  0  0  0  0
 12 18  1  0  0  0  0
 13  1  1  0  0  0  0
 14  3  1  0  0  0  0
 15  8  1  0  0  0  0
M  END
