96502971.xyz
 OpenBabel08132112143D
O=C1NCC(C1)n1cnnc1S
 20 21  0  0  1  0  0  0  0  0999 V2000
    6.0217    0.0578    2.6121 O   0  0  0  0  0  0  0  0  0  0  0  0
    4.8649    0.3204    2.3803 C   0  0  0  0  0  0  0  0  0  0  0  0
    4.4001    1.3724    1.6312 N   0  0  0  0  0  0  0  0  0  0  0  0
    2.9595    1.5044    1.6006 C   0  0  0  0  0  0  0  0  0  0  0  0
    2.5100    0.0683    1.9647 C   0  0  1  0  0  0  0  0  0  0  0  0
    3.6253   -0.4312    2.8852 C   0  0  0  0  0  0  0  0  0  0  0  0
    1.1612    0.0000    2.4959 N   0  0  0  0  0  0  0  0  0  0  0  0
    0.7151    0.0106    3.8013 C   0  0  0  0  0  0  0  0  0  0  0  0
   -0.5903    0.0036    3.8401 N   0  0  0  0  0  0  0  0  0  0  0  0
   -1.0508    0.0002    2.5452 N   0  0  0  0  0  0  0  0  0  0  0  0
    0.0000    0.0000    1.7607 C   0  0  0  0  0  0  0  0  0  0  0  0
    0.0000    0.0000    0.0000 S   0  0  0  0  0  0  0  0  0  0  0  0
    5.0408    2.0739    1.2772 H   0  0  0  0  0  0  0  0  0  0  0  0
    2.5774    2.2194    2.3541 H   0  0  0  0  0  0  0  0  0  0  0  0
    2.5855    1.8165    0.6140 H   0  0  0  0  0  0  0  0  0  0  0  0
    2.5236   -0.5388    1.0454 H   0  0  0  0  0  0  0  0  0  0  0  0
    3.7809   -1.5172    2.8681 H   0  0  0  0  0  0  0  0  0  0  0  0
    3.4667   -0.1261    3.9322 H   0  0  0  0  0  0  0  0  0  0  0  0
    1.3756    0.0096    4.6649 H   0  0  0  0  0  0  0  0  0  0  0  0
   -1.3488   -0.0724   -0.0556 H   0  0  0  0  0  0  0  0  0  0  0  0
  2  1  2  0  0  0  0
  2  6  1  0  0  0  0
  3  2  1  0  0  0  0
  4  3  1  0  0  0  0
  4  5  1  0  0  0  0
  4 14  1  0  0  0  0
  5 16  1  6  0  0  0
  5  7  1  0  0  0  0
  5  6  1  0  0  0  0
  6 18  1  0  0  0  0
  7  8  1  0  0  0  0
  8  9  2  0  0  0  0
  8 19  1  0  0  0  0
 10  9  1  0  0  0  0
 11  7  1  0  0  0  0
 11 10  2  0  0  0  0
 12 11  1  0  0  0  0
 13  3  1  0  0  0  0
 15  4  1  0  0  0  0
 17  6  1  0  0  0  0
 20 12  1  0  0  0  0
M  END
