96761877.xyz
 OpenBabel08132112143D
SCC(=O)NC1CN(C1)C
 22 22  0  0  0  0  0  0  0  0999 V2000
    0.0000    0.0000    0.0000 S   0  0  0  0  0  0  0  0  0  0  0  0
    0.0000   -0.0000    1.8327 C   0  0  0  0  0  0  0  0  0  0  0  0
    1.3503   -0.0000    2.5608 C   0  0  0  0  0  0  0  0  0  0  0  0
    1.3930   -0.3038    3.7412 O   0  0  0  0  0  0  0  0  0  0  0  0
    2.4239    0.3847    1.8259 N   0  0  0  0  0  0  0  0  0  0  0  0
    3.7554    0.4715    2.3659 C   0  0  0  0  0  0  0  0  0  0  0  0
    4.8395   -0.2218    1.5018 C   0  0  0  0  0  0  0  0  0  0  0  0
    5.1372    1.0791    0.8911 N   0  0  0  0  0  0  0  0  0  0  0  0
    4.5011    1.7831    2.0112 C   0  0  0  0  0  0  0  0  0  0  0  0
    6.4884    1.4023    0.5167 C   0  0  0  0  0  0  0  0  0  0  0  0
    0.4832   -1.2549   -0.1544 H   0  0  0  0  0  0  0  0  0  0  0  0
   -0.5343    0.9189    2.1217 H   0  0  0  0  0  0  0  0  0  0  0  0
   -0.5848   -0.8416    2.2272 H   0  0  0  0  0  0  0  0  0  0  0  0
    2.2758    0.6031    0.8435 H   0  0  0  0  0  0  0  0  0  0  0  0
    3.6989    0.1925    3.4241 H   0  0  0  0  0  0  0  0  0  0  0  0
    5.6683   -0.6199    2.1255 H   0  0  0  0  0  0  0  0  0  0  0  0
    4.5007   -1.0122    0.8098 H   0  0  0  0  0  0  0  0  0  0  0  0
    3.8822    2.6562    1.7418 H   0  0  0  0  0  0  0  0  0  0  0  0
    5.2130    2.0785    2.8113 H   0  0  0  0  0  0  0  0  0  0  0  0
    6.8273    0.7354   -0.2924 H   0  0  0  0  0  0  0  0  0  0  0  0
    7.2096    1.3093    1.3623 H   0  0  0  0  0  0  0  0  0  0  0  0
    6.5400    2.4366    0.1398 H   0  0  0  0  0  0  0  0  0  0  0  0
  1  2  1  0  0  0  0
  2 12  1  0  0  0  0
  2 13  1  0  0  0  0
  2  3  1  0  0  0  0
  3  4  2  0  0  0  0
  5  6  1  0  0  0  0
  5  3  1  0  0  0  0
  6 15  1  0  0  0  0
  7 16  1  0  0  0  0
  7  6  1  0  0  0  0
  8  7  1  0  0  0  0
  8  9  1  0  0  0  0
  9  6  1  0  0  0  0
  9 19  1  0  0  0  0
 10  8  1  0  0  0  0
 10 21  1  0  0  0  0
 11  1  1  0  0  0  0
 14  5  1  0  0  0  0
 17  7  1  0  0  0  0
 18  9  1  0  0  0  0
 20 10  1  0  0  0  0
 22 10  1  0  0  0  0
M  END
