96980130.xyz
 OpenBabel08132112143D
CC(C(F)F)Nc1nnc(s1)S
 19 19  0  0  1  0  0  0  0  0999 V2000
   -0.1513    1.6265    6.8002 C   0  0  0  0  0  0  0  0  0  0  0  0
    0.1753    0.1596    6.5207 C   0  0  2  0  0  0  0  0  0  0  0  0
    0.8627   -0.5226    7.6946 C   0  0  0  0  0  0  0  0  0  0  0  0
    2.0879    0.0547    7.8993 F   0  0  0  0  0  0  0  0  0  0  0  0
    0.1367   -0.3620    8.8269 F   0  0  0  0  0  0  0  0  0  0  0  0
    1.0380   -0.0337    5.3613 N   0  0  0  0  0  0  0  0  0  0  0  0
    0.5059    0.0128    4.1049 C   0  0  0  0  0  0  0  0  0  0  0  0
   -0.7715    0.0206    3.8473 N   0  0  0  0  0  0  0  0  0  0  0  0
   -1.0519    0.0043    2.5135 N   0  0  0  0  0  0  0  0  0  0  0  0
   -0.0000   -0.0000    1.7608 C   0  0  0  0  0  0  0  0  0  0  0  0
    1.5256   -0.0000    2.6588 S   0  0  0  0  0  0  0  0  0  0  0  0
    0.0000    0.0000    0.0000 S   0  0  0  0  0  0  0  0  0  0  0  0
   -0.6659    2.0574    5.9305 H   0  0  0  0  0  0  0  0  0  0  0  0
    0.7678    2.1986    6.9990 H   0  0  0  0  0  0  0  0  0  0  0  0
   -0.8088    1.7135    7.6769 H   0  0  0  0  0  0  0  0  0  0  0  0
   -0.7562   -0.3891    6.3183 H   0  0  0  0  0  0  0  0  0  0  0  0
    1.0240   -1.5998    7.5201 H   0  0  0  0  0  0  0  0  0  0  0  0
    1.9927    0.2909    5.4712 H   0  0  0  0  0  0  0  0  0  0  0  0
   -1.3520    0.0200   -0.0615 H   0  0  0  0  0  0  0  0  0  0  0  0
  1 14  1  0  0  0  0
  1 15  1  0  0  0  0
  2 16  1  6  0  0  0
  2  1  1  0  0  0  0
  2  3  1  0  0  0  0
  3  4  1  0  0  0  0
  3  5  1  0  0  0  0
  6 18  1  0  0  0  0
  6  2  1  0  0  0  0
  7  6  1  0  0  0  0
  8  7  2  0  0  0  0
  9  8  1  0  0  0  0
 10  9  2  0  0  0  0
 10 11  1  0  0  0  0
 11  7  1  0  0  0  0
 12 10  1  0  0  0  0
 13  1  1  0  0  0  0
 17  3  1  0  0  0  0
 19 12  1  0  0  0  0
M  END
