97074263.xyz
 OpenBabel08132112143D
Sc1nc2c(n1Cc1ccccc1)cccc2C
 32 34  0  0  1  0  0  0  0  0999 V2000
    0.0000    0.0000    0.0000 S   0  0  0  0  0  0  0  0  0  0  0  0
   -0.0000   -0.0000    1.7663 C   0  0  0  0  0  0  0  0  0  0  0  0
   -1.0633    0.0126    2.5270 N   0  0  0  0  0  0  0  0  0  0  0  0
   -0.5765    0.0321    3.8275 C   0  0  0  0  0  0  0  0  0  0  0  0
    0.8394    0.0354    3.8148 C   0  0  0  0  0  0  0  0  0  0  0  0
    1.1901   -0.0000    2.4692 N   0  0  0  0  0  0  0  0  0  0  0  0
    2.5427    0.0201    1.9440 C   0  0  0  0  0  0  0  0  0  0  0  0
    3.2152    1.3720    2.0710 C   0  0  0  0  0  0  0  0  0  0  0  0
    2.5966    2.5201    1.5553 C   0  0  0  0  0  0  0  0  0  0  0  0
    3.2132    3.7660    1.6720 C   0  0  0  0  0  0  0  0  0  0  0  0
    4.4562    3.8798    2.3043 C   0  0  0  0  0  0  0  0  0  0  0  0
    5.0778    2.7409    2.8196 C   0  0  0  0  0  0  0  0  0  0  0  0
    4.4566    1.4935    2.7047 C   0  0  0  0  0  0  0  0  0  0  0  0
    1.6051    0.0669    4.9826 C   0  0  0  0  0  0  0  0  0  0  0  0
    0.8946    0.0843    6.1836 C   0  0  0  0  0  0  0  0  0  0  0  0
   -0.5148    0.0743    6.2094 C   0  0  0  0  0  0  0  0  0  0  0  0
   -1.2863    0.0492    5.0429 C   0  0  1  0  0  0  0  0  0  0  0  0
   -2.7883    0.0425    5.0478 C   0  0  0  0  0  0  0  0  0  0  0  0
   -1.3484   -0.0577   -0.0554 H   0  0  0  0  0  0  0  0  0  0  0  0
    2.4927   -0.2900    0.8882 H   0  0  0  0  0  0  0  0  0  0  0  0
    3.1337   -0.7465    2.4691 H   0  0  0  0  0  0  0  0  0  0  0  0
    1.6260    2.4357    1.0601 H   0  0  0  0  0  0  0  0  0  0  0  0
    2.7220    4.6542    1.2674 H   0  0  0  0  0  0  0  0  0  0  0  0
    4.9369    4.8566    2.3966 H   0  0  0  0  0  0  0  0  0  0  0  0
    6.0461    2.8222    3.3191 H   0  0  0  0  0  0  0  0  0  0  0  0
    4.9421    0.6037    3.1157 H   0  0  0  0  0  0  0  0  0  0  0  0
    2.6954    0.0907    4.9621 H   0  0  0  0  0  0  0  0  0  0  0  0
    1.4426    0.1117    7.1284 H   0  0  0  0  0  0  0  0  0  0  0  0
   -1.0252    0.0906    7.1761 H   0  0  0  0  0  0  0  0  0  0  0  0
   -3.1790   -0.8516    4.5350 H   0  0  0  0  0  0  0  0  0  0  0  0
   -3.1865    0.9117    4.4994 H   0  0  0  0  0  0  0  0  0  0  0  0
   -3.1882    0.0613    6.0718 H   0  0  0  0  0  0  0  0  0  0  0  0
  1  2  1  0  0  0  0
  2  6  1  0  0  0  0
  2  3  2  0  0  0  0
  3  4  2  0  0  0  0
  4 17  1  0  0  0  0
  5  4  1  0  0  0  0
  5 14  2  0  0  0  0
  6  5  1  0  0  0  0
  7  8  1  0  0  0  0
  7 21  1  0  0  0  0
  7  6  1  0  0  0  0
  8 13  2  0  0  0  0
  9 10  2  0  0  0  0
  9  8  1  0  0  0  0
 10 11  1  0  0  0  0
 11 24  1  0  0  0  0
 11 12  2  0  0  0  0
 12 25  1  0  0  0  0
 13 12  1  0  0  0  0
 13 26  1  0  0  0  0
 14 15  1  0  0  0  0
 15 16  2  0  0  0  0
 15 28  1  0  0  0  0
 16 29  1  0  0  0  0
 17 18  1  6  0  0  0
 17 16  1  0  0  0  0
 18 32  1  0  0  0  0
 19  1  1  0  0  0  0
 20  7  1  0  0  0  0
 22  9  1  0  0  0  0
 23 10  1  0  0  0  0
 27 14  1  0  0  0  0
 30 18  1  0  0  0  0
 31 18  1  0  0  0  0
M  RAD  1  17   2
M  END
