97074156.xyz
 OpenBabel08132112143D
Cc1nn(cc1NC(=O)CCS)C
 26 26  0  0  0  0  0  0  0  0999 V2000
    6.6495    0.8881    2.1846 C   0  0  0  0  0  0  0  0  0  0  0  0
    5.8279    2.1159    1.9531 C   0  0  0  0  0  0  0  0  0  0  0  0
    6.3854    3.3038    1.7173 N   0  0  0  0  0  0  0  0  0  0  0  0
    5.3709    4.1627    1.5580 N   0  0  0  0  0  0  0  0  0  0  0  0
    4.1493    3.5684    1.6823 C   0  0  0  0  0  0  0  0  0  0  0  0
    4.4093    2.2293    1.9417 C   0  0  0  0  0  0  0  0  0  0  0  0
    3.5099    1.1775    2.1520 N   0  0  0  0  0  0  0  0  0  0  0  0
    2.1491    1.2895    2.1394 C   0  0  0  0  0  0  0  0  0  0  0  0
    1.5738    2.3447    1.9163 O   0  0  0  0  0  0  0  0  0  0  0  0
    1.3947    0.0000    2.4493 C   0  0  0  0  0  0  0  0  0  0  0  0
    0.0000    0.0000    1.8356 C   0  0  0  0  0  0  0  0  0  0  0  0
    0.0000    0.0000    0.0000 S   0  0  0  0  0  0  0  0  0  0  0  0
    5.6447    5.5550    1.2832 C   0  0  0  0  0  0  0  0  0  0  0  0
    7.7159    1.1446    2.1272 H   0  0  0  0  0  0  0  0  0  0  0  0
    6.4586    0.4465    3.1783 H   0  0  0  0  0  0  0  0  0  0  0  0
    6.4456    0.1088    1.4297 H   0  0  0  0  0  0  0  0  0  0  0  0
    3.2092    4.0987    1.5847 H   0  0  0  0  0  0  0  0  0  0  0  0
    3.9114    0.2639    2.3219 H   0  0  0  0  0  0  0  0  0  0  0  0
    1.3101   -0.0763    3.5500 H   0  0  0  0  0  0  0  0  0  0  0  0
    1.9677   -0.8759    2.1045 H   0  0  0  0  0  0  0  0  0  0  0  0
   -0.5481   -0.9065    2.1299 H   0  0  0  0  0  0  0  0  0  0  0  0
   -0.5661    0.8725    2.1884 H   0  0  0  0  0  0  0  0  0  0  0  0
    0.4209    1.2793   -0.1239 H   0  0  0  0  0  0  0  0  0  0  0  0
    6.2308    5.9991    2.1023 H   0  0  0  0  0  0  0  0  0  0  0  0
    6.2152    5.6559    0.3474 H   0  0  0  0  0  0  0  0  0  0  0  0
    4.6932    6.0936    1.1864 H   0  0  0  0  0  0  0  0  0  0  0  0
  1 15  1  0  0  0  0
  2  1  1  0  0  0  0
  3  2  2  0  0  0  0
  4  5  1  0  0  0  0
  4  3  1  0  0  0  0
  5  6  2  0  0  0  0
  6  2  1  0  0  0  0
  6  7  1  0  0  0  0
  7 18  1  0  0  0  0
  8  7  1  0  0  0  0
  8 10  1  0  0  0  0
  9  8  2  0  0  0  0
 10 19  1  0  0  0  0
 11 21  1  0  0  0  0
 11 22  1  0  0  0  0
 11 10  1  0  0  0  0
 12 11  1  0  0  0  0
 13  4  1  0  0  0  0
 13 24  1  0  0  0  0
 14  1  1  0  0  0  0
 16  1  1  0  0  0  0
 17  5  1  0  0  0  0
 20 10  1  0  0  0  0
 23 12  1  0  0  0  0
 25 13  1  0  0  0  0
 26 13  1  0  0  0  0
M  END
