97099838.xyz
 OpenBabel08132112143D
CC1CCc2c(C1)oc(n2)S
 22 23  0  0  1  0  0  0  0  0999 V2000
    2.2098   -0.1003    7.2872 C   0  0  0  0  0  0  0  0  0  0  0  0
    1.2818   -0.3640    6.1026 C   0  0  1  0  0  0  0  0  0  0  0  0
   -0.0624    0.3785    6.2544 C   0  0  0  0  0  0  0  0  0  0  0  0
   -1.0907    0.0105    5.1680 C   0  0  0  0  0  0  0  0  0  0  0  0
   -0.4102    0.0028    3.8384 C   0  0  0  0  0  0  0  0  0  0  0  0
    0.9412   -0.0010    3.6994 C   0  0  1  0  0  0  0  0  0  0  0  0
    1.9732   -0.0061    4.7645 C   0  0  0  0  0  0  0  0  0  0  0  0
    1.2217   -0.0000    2.3508 O   0  0  0  0  0  0  0  0  0  0  0  0
    0.0000    0.0000    1.7566 C   0  0  0  0  0  0  0  0  0  0  0  0
   -1.0036    0.0012    2.5778 N   0  0  0  0  0  0  0  0  0  0  0  0
    0.0000    0.0000    0.0000 S   0  0  0  0  0  0  0  0  0  0  0  0
    3.1709   -0.6259    7.1689 H   0  0  0  0  0  0  0  0  0  0  0  0
    2.4275    0.9768    7.3836 H   0  0  0  0  0  0  0  0  0  0  0  0
    1.7558   -0.4357    8.2328 H   0  0  0  0  0  0  0  0  0  0  0  0
    1.0570   -1.4462    6.0699 H   0  0  0  0  0  0  0  0  0  0  0  0
    0.1331    1.4656    6.2162 H   0  0  0  0  0  0  0  0  0  0  0  0
   -0.4818    0.1715    7.2519 H   0  0  0  0  0  0  0  0  0  0  0  0
   -1.9311    0.7232    5.1654 H   0  0  0  0  0  0  0  0  0  0  0  0
   -1.5305   -0.9827    5.3728 H   0  0  0  0  0  0  0  0  0  0  0  0
    2.4618    0.9839    4.8442 H   0  0  0  0  0  0  0  0  0  0  0  0
    2.7748   -0.7306    4.5414 H   0  0  0  0  0  0  0  0  0  0  0  0
   -1.3497   -0.0034   -0.0610 H   0  0  0  0  0  0  0  0  0  0  0  0
  1 13  1  0  0  0  0
  1 14  1  0  0  0  0
  2 15  1  6  0  0  0
  2  3  1  0  0  0  0
  2  1  1  0  0  0  0
  3 17  1  0  0  0  0
  4 19  1  0  0  0  0
  4  3  1  0  0  0  0
  5  4  1  0  0  0  0
  6  8  1  6  0  0  0
  6  5  1  0  0  0  0
  6  7  1  0  0  0  0
  7 20  1  0  0  0  0
  7  2  1  0  0  0  0
  9  8  1  0  0  0  0
  9 10  2  0  0  0  0
 10  5  2  0  0  0  0
 11  9  1  0  0  0  0
 12  1  1  0  0  0  0
 16  3  1  0  0  0  0
 18  4  1  0  0  0  0
 21  7  1  0  0  0  0
 22 11  1  0  0  0  0
M  RAD  1   6   2
M  END
