97112633.xyz
 OpenBabel08132112143D
Sc1onc(n1)c1occc1C
 18 19  0  0  0  0  0  0  0  0999 V2000
    0.0000    0.0000    0.0000 S   0  0  0  0  0  0  0  0  0  0  0  0
   -0.0000    0.0000    1.7476 C   0  0  0  0  0  0  0  0  0  0  0  0
    1.1662    0.0000    2.4107 O   0  0  0  0  0  0  0  0  0  0  0  0
    0.8487   -0.0000    3.7745 N   0  0  0  0  0  0  0  0  0  0  0  0
   -0.4714    0.0001    3.7770 C   0  0  0  0  0  0  0  0  0  0  0  0
   -1.0419    0.0001    2.5196 N   0  0  0  0  0  0  0  0  0  0  0  0
   -1.2379    0.0002    5.0017 C   0  0  0  0  0  0  0  0  0  0  0  0
   -2.5967    0.0003    4.9036 O   0  0  0  0  0  0  0  0  0  0  0  0
   -3.0893    0.0002    6.1594 C   0  0  0  0  0  0  0  0  0  0  0  0
   -2.0707    0.0001    7.0744 C   0  0  0  0  0  0  0  0  0  0  0  0
   -0.8483    0.0000    6.3265 C   0  0  0  0  0  0  0  0  0  0  0  0
    0.5503   -0.0002    6.8563 C   0  0  0  0  0  0  0  0  0  0  0  0
    1.3494   -0.0005   -0.0974 H   0  0  0  0  0  0  0  0  0  0  0  0
   -4.1723    0.0003    6.2486 H   0  0  0  0  0  0  0  0  0  0  0  0
   -2.1674   -0.0000    8.1580 H   0  0  0  0  0  0  0  0  0  0  0  0
    1.1099    0.8795    6.5011 H   0  0  0  0  0  0  0  0  0  0  0  0
    0.5545   -0.0006    7.9554 H   0  0  0  0  0  0  0  0  0  0  0  0
    1.1098   -0.8797    6.5005 H   0  0  0  0  0  0  0  0  0  0  0  0
  1  2  1  0  0  0  0
  2  3  1  0  0  0  0
  2  6  2  0  0  0  0
  3  4  1  0  0  0  0
  4  5  2  0  0  0  0
  5  7  1  0  0  0  0
  6  5  2  0  0  0  0
  7 11  2  0  0  0  0
  8  7  1  0  0  0  0
  8  9  1  0  0  0  0
  9 14  1  0  0  0  0
  9 10  2  0  0  0  0
 10 15  1  0  0  0  0
 11 12  1  0  0  0  0
 11 10  1  0  0  0  0
 12 17  1  0  0  0  0
 13  1  1  0  0  0  0
 16 12  1  0  0  0  0
 18 12  1  0  0  0  0
M  END
