97124629.xyz
 OpenBabel08132112143D
SCC(=O)N1CCC2(C1)CC2
 24 25  0  0  0  0  0  0  0  0999 V2000
    0.0000    0.0000    0.0000 S   0  0  0  0  0  0  0  0  0  0  0  0
   -0.0000   -0.0000    1.8402 C   0  0  0  0  0  0  0  0  0  0  0  0
    1.4186   -0.0000    2.3956 C   0  0  0  0  0  0  0  0  0  0  0  0
    1.9576   -1.0471    2.7279 O   0  0  0  0  0  0  0  0  0  0  0  0
    2.0566    1.1973    2.4697 N   0  0  0  0  0  0  0  0  0  0  0  0
    1.5498    2.5005    2.0285 C   0  0  0  0  0  0  0  0  0  0  0  0
    2.8162    3.3641    1.9639 C   0  0  0  0  0  0  0  0  0  0  0  0
    3.6857    2.7592    3.0541 C   0  0  0  0  0  0  0  0  0  0  0  0
    3.4361    1.2646    2.9567 C   0  0  0  0  0  0  0  0  0  0  0  0
    5.0016    3.3307    3.4794 C   0  0  0  0  0  0  0  0  0  0  0  0
    3.8056    3.4296    4.3998 C   0  0  0  0  0  0  0  0  0  0  0  0
    0.7976   -1.0870   -0.1202 H   0  0  0  0  0  0  0  0  0  0  0  0
   -0.5040   -0.8994    2.2149 H   0  0  0  0  0  0  0  0  0  0  0  0
   -0.5794    0.8865    2.1341 H   0  0  0  0  0  0  0  0  0  0  0  0
    1.0459    2.4169    1.0547 H   0  0  0  0  0  0  0  0  0  0  0  0
    0.8307    2.9133    2.7601 H   0  0  0  0  0  0  0  0  0  0  0  0
    2.6112    4.4341    2.1120 H   0  0  0  0  0  0  0  0  0  0  0  0
    3.3040    3.2426    0.9816 H   0  0  0  0  0  0  0  0  0  0  0  0
    4.1209    0.7772    2.2381 H   0  0  0  0  0  0  0  0  0  0  0  0
    3.5400    0.7330    3.9144 H   0  0  0  0  0  0  0  0  0  0  0  0
    5.8011    2.6340    3.7481 H   0  0  0  0  0  0  0  0  0  0  0  0
    5.3487    4.2423    2.9841 H   0  0  0  0  0  0  0  0  0  0  0  0
    3.3363    4.4094    4.5296 H   0  0  0  0  0  0  0  0  0  0  0  0
    3.7893    2.7984    5.2929 H   0  0  0  0  0  0  0  0  0  0  0  0
  1  2  1  0  0  0  0
  2 14  1  0  0  0  0
  2 13  1  0  0  0  0
  2  3  1  0  0  0  0
  3  5  1  0  0  0  0
  3  4  2  0  0  0  0
  5  9  1  0  0  0  0
  6  5  1  0  0  0  0
  6 16  1  0  0  0  0
  7  6  1  0  0  0  0
  7 17  1  0  0  0  0
  7  8  1  0  0  0  0
  8 10  1  0  0  0  0
  8 11  1  0  0  0  0
  9  8  1  0  0  0  0
  9 20  1  0  0  0  0
 10 21  1  0  0  0  0
 10 11  1  0  0  0  0
 11 23  1  0  0  0  0
 11 24  1  0  0  0  0
 12  1  1  0  0  0  0
 15  6  1  0  0  0  0
 18  7  1  0  0  0  0
 19  9  1  0  0  0  0
 22 10  1  0  0  0  0
M  END
