97125062.xyz
 OpenBabel08132112143D
Sc1oc(c(n1)c1ccco1)C
 19 20  0  0  1  0  0  0  0  0999 V2000
    0.0000    0.0000    0.0000 S   0  0  0  0  0  0  0  0  0  0  0  0
    0.0000    0.0000    1.7561 C   0  0  0  0  0  0  0  0  0  0  0  0
    1.2149   -0.0000    2.3540 O   0  0  0  0  0  0  0  0  0  0  0  0
    0.9516   -0.0001    3.7066 C   0  0  2  0  0  0  0  0  0  0  0  0
   -0.4148   -0.0001    3.8411 C   0  0  0  0  0  0  0  0  0  0  0  0
   -1.0004   -0.0001    2.5749 N   0  0  0  0  0  0  0  0  0  0  0  0
   -1.1920   -0.0001    5.0626 C   0  0  0  0  0  0  0  0  0  0  0  0
   -0.8438    0.0005    6.3961 C   0  0  0  0  0  0  0  0  0  0  0  0
   -2.0717    0.0003    7.1321 C   0  0  0  0  0  0  0  0  0  0  0  0
   -3.0703   -0.0006    6.1984 C   0  0  0  0  0  0  0  0  0  0  0  0
   -2.5472   -0.0008    4.9481 O   0  0  0  0  0  0  0  0  0  0  0  0
    2.0975    0.0000    4.6493 C   0  0  0  0  0  0  0  0  0  0  0  0
   -1.3498   -0.0001   -0.0593 H   0  0  0  0  0  0  0  0  0  0  0  0
    0.1639    0.0012    6.8019 H   0  0  0  0  0  0  0  0  0  0  0  0
   -2.1923    0.0007    8.2129 H   0  0  0  0  0  0  0  0  0  0  0  0
   -4.1548   -0.0012    6.2623 H   0  0  0  0  0  0  0  0  0  0  0  0
    3.0432   -0.0001    4.0906 H   0  0  0  0  0  0  0  0  0  0  0  0
    2.0815    0.8890    5.3022 H   0  0  0  0  0  0  0  0  0  0  0  0
    2.0815   -0.8889    5.3024 H   0  0  0  0  0  0  0  0  0  0  0  0
  1  2  1  0  0  0  0
  2  3  1  0  0  0  0
  2  6  2  0  0  0  0
  3  4  1  0  0  0  0
  4  5  1  0  0  0  0
  4 12  1  1  0  0  0
  5  7  1  0  0  0  0
  6  5  2  0  0  0  0
  7  8  2  0  0  0  0
  8 14  1  0  0  0  0
  8  9  1  0  0  0  0
  9 15  1  0  0  0  0
 10 16  1  0  0  0  0
 10  9  2  0  0  0  0
 11  7  1  0  0  0  0
 11 10  1  0  0  0  0
 12 18  1  0  0  0  0
 12 19  1  0  0  0  0
 13  1  1  0  0  0  0
 17 12  1  0  0  0  0
M  RAD  1   4   2
M  END
