97138613.xyz
 OpenBabel08132112143D
CC1CCN(C1C)C(=O)C(S)C
 29 29  0  0  1  0  0  0  0  0999 V2000
   -5.4822   -2.4192    3.2683 C   0  0  0  0  0  0  0  0  0  0  0  0
   -4.4557   -1.7866    2.3369 C   0  0  1  0  0  0  0  0  0  0  0  0
   -4.3227   -0.2641    2.4594 C   0  0  0  0  0  0  0  0  0  0  0  0
   -2.9675    0.0189    1.8142 C   0  0  0  0  0  0  0  0  0  0  0  0
   -2.1709   -1.1412    2.2118 N   0  0  0  0  0  0  0  0  0  0  0  0
   -3.0149   -2.3058    2.5487 C   0  0  2  0  0  0  0  0  0  0  0  0
   -2.6981   -3.5413    1.7103 C   0  0  0  0  0  0  0  0  0  0  0  0
   -0.8179   -1.2037    2.3406 C   0  0  0  0  0  0  0  0  0  0  0  0
   -0.2488   -2.1919    2.7886 O   0  0  0  0  0  0  0  0  0  0  0  0
    0.0000   -0.0000    1.8531 C   0  0  2  0  0  0  0  0  0  0  0  0
    0.0000    0.0000    0.0000 S   0  0  0  0  0  0  0  0  0  0  0  0
    1.4036   -0.0000    2.4397 C   0  0  0  0  0  0  0  0  0  0  0  0
   -6.4949   -2.0380    3.0626 H   0  0  0  0  0  0  0  0  0  0  0  0
   -5.5093   -3.5143    3.1529 H   0  0  0  0  0  0  0  0  0  0  0  0
   -5.2449   -2.1980    4.3222 H   0  0  0  0  0  0  0  0  0  0  0  0
   -4.7362   -2.0148    1.2924 H   0  0  0  0  0  0  0  0  0  0  0  0
   -4.2983    0.0260    3.5239 H   0  0  0  0  0  0  0  0  0  0  0  0
   -5.1478    0.2822    1.9787 H   0  0  0  0  0  0  0  0  0  0  0  0
   -3.0424    0.0879    0.7140 H   0  0  0  0  0  0  0  0  0  0  0  0
   -2.5216    0.9575    2.1714 H   0  0  0  0  0  0  0  0  0  0  0  0
   -2.8528   -2.5508    3.6144 H   0  0  0  0  0  0  0  0  0  0  0  0
   -2.7736   -3.3040    0.6367 H   0  0  0  0  0  0  0  0  0  0  0  0
   -3.4170   -4.3443    1.9383 H   0  0  0  0  0  0  0  0  0  0  0  0
   -1.6849   -3.9038    1.9228 H   0  0  0  0  0  0  0  0  0  0  0  0
   -0.5129    0.9416    2.0969 H   0  0  0  0  0  0  0  0  0  0  0  0
    0.5266   -1.2416   -0.1203 H   0  0  0  0  0  0  0  0  0  0  0  0
    1.9875    0.8405    2.0395 H   0  0  0  0  0  0  0  0  0  0  0  0
    1.3583    0.0820    3.5375 H   0  0  0  0  0  0  0  0  0  0  0  0
    1.9142   -0.9438    2.2047 H   0  0  0  0  0  0  0  0  0  0  0  0
  1 15  1  0  0  0  0
  2  3  1  0  0  0  0
  2  6  1  1  0  0  0
  2  1  1  0  0  0  0
  3 17  1  0  0  0  0
  4 20  1  0  0  0  0
  4  5  1  0  0  0  0
  4  3  1  0  0  0  0
  5  8  1  0  0  0  0
  5  6  1  0  0  0  0
  6 21  1  1  0  0  0
  7 24  1  0  0  0  0
  7 23  1  0  0  0  0
  7  6  1  0  0  0  0
  8  9  2  0  0  0  0
 10 25  1  1  0  0  0
 10  8  1  0  0  0  0
 10 12  1  0  0  0  0
 11 10  1  0  0  0  0
 12 28  1  0  0  0  0
 13  1  1  0  0  0  0
 14  1  1  0  0  0  0
 16  2  1  0  0  0  0
 18  3  1  0  0  0  0
 19  4  1  0  0  0  0
 22  7  1  0  0  0  0
 26 11  1  0  0  0  0
 27 12  1  0  0  0  0
 29 12  1  0  0  0  0
M  END
