97138885.xyz
 OpenBabel08132112143D
CN(NC(=O)c1ccc(cc1)S)C
 25 25  0  0  0  0  0  0  0  0999 V2000
    0.5611    1.4585    8.7507 C   0  0  0  0  0  0  0  0  0  0  0  0
    1.4392    0.5050    8.0807 N   0  0  0  0  0  0  0  0  0  0  0  0
    1.2560    0.4562    6.7008 N   0  0  0  0  0  0  0  0  0  0  0  0
    0.1091    0.0132    6.0932 C   0  0  0  0  0  0  0  0  0  0  0  0
   -0.8702   -0.3547    6.7251 O   0  0  0  0  0  0  0  0  0  0  0  0
    0.1301    0.0173    4.5915 C   0  0  0  0  0  0  0  0  0  0  0  0
   -1.1062   -0.0058    3.9304 C   0  0  0  0  0  0  0  0  0  0  0  0
   -1.1770   -0.0062    2.5410 C   0  0  0  0  0  0  0  0  0  0  0  0
   -0.0000    0.0000    1.7734 C   0  0  0  0  0  0  0  0  0  0  0  0
    1.2429    0.0000    2.4282 C   0  0  0  0  0  0  0  0  0  0  0  0
    1.3026    0.0082    3.8199 C   0  0  0  0  0  0  0  0  0  0  0  0
    0.0000    0.0000    0.0000 S   0  0  0  0  0  0  0  0  0  0  0  0
    1.4699   -0.8148    8.6977 C   0  0  0  0  0  0  0  0  0  0  0  0
   -0.5001    1.1491    8.7499 H   0  0  0  0  0  0  0  0  0  0  0  0
    0.6462    2.4374    8.2553 H   0  0  0  0  0  0  0  0  0  0  0  0
    0.9000    1.5741    9.7921 H   0  0  0  0  0  0  0  0  0  0  0  0
    1.9897    0.8862    6.1502 H   0  0  0  0  0  0  0  0  0  0  0  0
   -2.0132   -0.0261    4.5371 H   0  0  0  0  0  0  0  0  0  0  0  0
   -2.1523   -0.0152    2.0490 H   0  0  0  0  0  0  0  0  0  0  0  0
    2.1665   -0.0173    1.8450 H   0  0  0  0  0  0  0  0  0  0  0  0
    2.2836   -0.0259    4.2989 H   0  0  0  0  0  0  0  0  0  0  0  0
   -1.3416   -0.0334   -0.1581 H   0  0  0  0  0  0  0  0  0  0  0  0
    1.7940   -0.7050    9.7444 H   0  0  0  0  0  0  0  0  0  0  0  0
    0.4902   -1.3278    8.6793 H   0  0  0  0  0  0  0  0  0  0  0  0
    2.2088   -1.4403    8.1750 H   0  0  0  0  0  0  0  0  0  0  0  0
  1 16  1  0  0  0  0
  2 13  1  0  0  0  0
  2  1  1  0  0  0  0
  3  2  1  0  0  0  0
  4  3  1  0  0  0  0
  4  5  2  0  0  0  0
  6  4  1  0  0  0  0
  7 18  1  0  0  0  0
  7  6  1  0  0  0  0
  8  7  2  0  0  0  0
  9 10  2  0  0  0  0
  9  8  1  0  0  0  0
 10 11  1  0  0  0  0
 11 21  1  0  0  0  0
 11  6  2  0  0  0  0
 12  9  1  0  0  0  0
 13 23  1  0  0  0  0
 14  1  1  0  0  0  0
 15  1  1  0  0  0  0
 17  3  1  0  0  0  0
 19  8  1  0  0  0  0
 20 10  1  0  0  0  0
 22 12  1  0  0  0  0
 24 13  1  0  0  0  0
 25 13  1  0  0  0  0
M  END
