97148626.xyz
 OpenBabel08132112143D
Sc1ccnc(n1)C#N
 12 12  0  0  0  0  0  0  0  0999 V2000
    0.0000    0.0000    0.0000 S   0  0  0  0  0  0  0  0  0  0  0  0
    0.0000   -0.0000    1.7620 C   0  0  0  0  0  0  0  0  0  0  0  0
   -1.2216   -0.0001    2.4634 C   0  0  0  0  0  0  0  0  0  0  0  0
   -1.1400   -0.0001    3.8510 C   0  0  0  0  0  0  0  0  0  0  0  0
    0.0264   -0.0001    4.5073 N   0  0  0  0  0  0  0  0  0  0  0  0
    1.1171   -0.0003    3.7423 C   0  0  0  0  0  0  0  0  0  0  0  0
    1.1671   -0.0000    2.4067 N   0  0  0  0  0  0  0  0  0  0  0  0
    2.3964    0.0006    4.4289 C   0  0  0  0  0  0  0  0  0  0  0  0
    3.4183    0.0012    4.9748 N   0  0  0  0  0  0  0  0  0  0  0  0
    1.3489    0.0006   -0.0962 H   0  0  0  0  0  0  0  0  0  0  0  0
   -2.1822   -0.0001    1.9465 H   0  0  0  0  0  0  0  0  0  0  0  0
   -2.0485   -0.0000    4.4626 H   0  0  0  0  0  0  0  0  0  0  0  0
  1  2  1  0  0  0  0
  2  7  2  0  0  0  0
  2  3  1  0  0  0  0
  3  4  1  0  0  0  0
  4 12  1  0  0  0  0
  4  5  2  0  0  0  0
  6  8  1  0  0  0  0
  6  5  2  0  0  0  0
  7  6  2  0  0  0  0
  8  9  3  0  0  0  0
 10  1  1  0  0  0  0
 11  3  1  0  0  0  0
M  RAD  1   3   2
M  END
