97159261.xyz
 OpenBabel08132112143D
SCCn1ccccc1=O
 19 19  0  0  0  0  0  0  0  0999 V2000
    0.0000    0.0000    0.0000 S   0  0  0  0  0  0  0  0  0  0  0  0
   -0.0000    0.0000    1.8314 C   0  0  0  0  0  0  0  0  0  0  0  0
    1.3873    0.0000    2.4734 C   0  0  0  0  0  0  0  0  0  0  0  0
    2.1646    1.1896    2.1437 N   0  0  0  0  0  0  0  0  0  0  0  0
    3.0955    1.1598    1.1468 C   0  0  0  0  0  0  0  0  0  0  0  0
    3.8174    2.2679    0.8002 C   0  0  0  0  0  0  0  0  0  0  0  0
    3.5663    3.4796    1.5039 C   0  0  0  0  0  0  0  0  0  0  0  0
    2.6245    3.5301    2.4947 C   0  0  0  0  0  0  0  0  0  0  0  0
    1.8381    2.3706    2.8661 C   0  0  0  0  0  0  0  0  0  0  0  0
    0.9539    2.3375    3.7146 O   0  0  0  0  0  0  0  0  0  0  0  0
    0.4211   -1.2778   -0.1560 H   0  0  0  0  0  0  0  0  0  0  0  0
   -0.5843   -0.8542    2.2043 H   0  0  0  0  0  0  0  0  0  0  0  0
   -0.5299    0.9148    2.1319 H   0  0  0  0  0  0  0  0  0  0  0  0
    1.2610   -0.0171    3.5655 H   0  0  0  0  0  0  0  0  0  0  0  0
    1.9629   -0.8857    2.1669 H   0  0  0  0  0  0  0  0  0  0  0  0
    3.2224    0.1986    0.6478 H   0  0  0  0  0  0  0  0  0  0  0  0
    4.5580    2.2101    0.0034 H   0  0  0  0  0  0  0  0  0  0  0  0
    4.1322    4.3790    1.2459 H   0  0  0  0  0  0  0  0  0  0  0  0
    2.4071    4.4452    3.0468 H   0  0  0  0  0  0  0  0  0  0  0  0
  1  2  1  0  0  0  0
  2 13  1  0  0  0  0
  2 12  1  0  0  0  0
  2  3  1  0  0  0  0
  3 14  1  0  0  0  0
  4  3  1  0  0  0  0
  4  9  1  0  0  0  0
  5  4  1  0  0  0  0
  6  5  2  0  0  0  0
  6  7  1  0  0  0  0
  7  8  2  0  0  0  0
  8  9  1  0  0  0  0
  8 19  1  0  0  0  0
  9 10  2  0  0  0  0
 11  1  1  0  0  0  0
 15  3  1  0  0  0  0
 16  5  1  0  0  0  0
 17  6  1  0  0  0  0
 18  7  1  0  0  0  0
M  END
