97168657.xyz
 OpenBabel08132112143D
Cc1ncccc1c1nnc([nH]1)S
 21 22  0  0  1  0  0  0  0  0999 V2000
    0.1670    0.8081    6.5951 C   0  0  0  0  0  0  0  0  0  0  0  0
   -1.2355    0.3808    6.2702 C   0  0  0  0  0  0  0  0  0  0  0  0
   -2.1032    0.3748    7.2894 N   0  0  0  0  0  0  0  0  0  0  0  0
   -3.3677    0.0045    7.0923 C   0  0  0  0  0  0  0  0  0  0  0  0
   -3.8599   -0.3943    5.8489 C   0  0  0  0  0  0  0  0  0  0  0  0
   -2.9754   -0.3958    4.7753 C   0  0  0  0  0  0  0  0  0  0  0  0
   -1.6405   -0.0009    4.9595 C   0  0  1  0  0  0  0  0  0  0  0  0
   -0.7230    0.0110    3.8189 C   0  0  0  0  0  0  0  0  0  0  0  0
    0.5943    0.0093    3.8348 N   0  0  0  0  0  0  0  0  0  0  0  0
    1.0505    0.0000    2.5446 N   0  0  0  0  0  0  0  0  0  0  0  0
   -0.0000    0.0000    1.7568 C   0  0  0  0  0  0  0  0  0  0  0  0
   -1.1470    0.0026    2.5009 N   0  0  0  0  0  0  0  0  0  0  0  0
    0.0000    0.0000    0.0000 S   0  0  0  0  0  0  0  0  0  0  0  0
    0.8761   -0.0183    6.4406 H   0  0  0  0  0  0  0  0  0  0  0  0
    0.1967    1.1414    7.6399 H   0  0  0  0  0  0  0  0  0  0  0  0
    0.5100    1.6114    5.9260 H   0  0  0  0  0  0  0  0  0  0  0  0
   -4.0250    0.0236    7.9695 H   0  0  0  0  0  0  0  0  0  0  0  0
   -4.9001   -0.7020    5.7276 H   0  0  0  0  0  0  0  0  0  0  0  0
   -3.3228   -0.7305    3.7944 H   0  0  0  0  0  0  0  0  0  0  0  0
   -2.0964    0.0640    2.1563 H   0  0  0  0  0  0  0  0  0  0  0  0
    1.3505    0.0314   -0.0571 H   0  0  0  0  0  0  0  0  0  0  0  0
  1 15  1  0  0  0  0
  2  1  1  0  0  0  0
  2  3  2  0  0  0  0
  4  3  2  0  0  0  0
  4 17  1  0  0  0  0
  5  4  1  0  0  0  0
  6  7  1  0  0  0  0
  6  5  2  0  0  0  0
  7  8  1  6  0  0  0
  7  2  1  0  0  0  0
  8  9  2  0  0  0  0
 10  9  1  0  0  0  0
 11 12  1  0  0  0  0
 11 10  2  0  0  0  0
 12  8  1  0  0  0  0
 13 11  1  0  0  0  0
 14  1  1  0  0  0  0
 16  1  1  0  0  0  0
 18  5  1  0  0  0  0
 19  6  1  0  0  0  0
 20 12  1  0  0  0  0
 21 13  1  0  0  0  0
M  RAD  1   7   2
M  END
