97180046.xyz
 OpenBabel08132112143D
SCC(=O)Nc1ccc(cc1Br)I
 20 20  0  0  0  0  0  0  0  0999 V2000
    0.0000    0.0000    0.0000 S   0  0  0  0  0  0  0  0  0  0  0  0
   -0.0000   -0.0000    1.8264 C   0  0  0  0  0  0  0  0  0  0  0  0
    1.4140   -0.0000    2.4005 C   0  0  0  0  0  0  0  0  0  0  0  0
    2.3399    0.5527    1.8411 O   0  0  0  0  0  0  0  0  0  0  0  0
    1.6306   -0.6570    3.5973 N   0  0  0  0  0  0  0  0  0  0  0  0
    0.7517   -1.3504    4.4376 C   0  0  0  0  0  0  0  0  0  0  0  0
   -0.5193   -0.8504    4.7680 C   0  0  0  0  0  0  0  0  0  0  0  0
   -1.3842   -1.5506    5.6068 C   0  0  0  0  0  0  0  0  0  0  0  0
   -0.9709   -2.7625    6.1660 C   0  0  0  0  0  0  0  0  0  0  0  0
    0.3006   -3.2716    5.8915 C   0  0  0  0  0  0  0  0  0  0  0  0
    1.1443   -2.5698    5.0294 C   0  0  0  0  0  0  0  0  0  0  0  0
    2.8691   -3.2873    4.6538 Br  0  0  0  0  0  0  0  0  0  0  0  0
   -2.2715   -3.8325    7.4536 I   0  0  0  0  0  0  0  0  0  0  0  0
    1.0705    0.8226   -0.0974 H   0  0  0  0  0  0  0  0  0  0  0  0
   -0.5285    0.8901    2.2071 H   0  0  0  0  0  0  0  0  0  0  0  0
   -0.5682   -0.8828    2.1469 H   0  0  0  0  0  0  0  0  0  0  0  0
    2.6224   -0.7429    3.8107 H   0  0  0  0  0  0  0  0  0  0  0  0
   -0.8255    0.1203    4.3787 H   0  0  0  0  0  0  0  0  0  0  0  0
   -2.3667   -1.1376    5.8378 H   0  0  0  0  0  0  0  0  0  0  0  0
    0.6378   -4.2108    6.3291 H   0  0  0  0  0  0  0  0  0  0  0  0
  1  2  1  0  0  0  0
  2 16  1  0  0  0  0
  2 15  1  0  0  0  0
  2  3  1  0  0  0  0
  3  5  1  0  0  0  0
  4  3  2  0  0  0  0
  5 17  1  0  0  0  0
  5  6  1  0  0  0  0
  6  7  2  0  0  0  0
  6 11  1  0  0  0  0
  7  8  1  0  0  0  0
  8 19  1  0  0  0  0
  8  9  2  0  0  0  0
  9 13  1  0  0  0  0
 10  9  1  0  0  0  0
 10 20  1  0  0  0  0
 11 10  2  0  0  0  0
 12 11  1  0  0  0  0
 14  1  1  0  0  0  0
 18  7  1  0  0  0  0
M  END
