97196969.xyz
 OpenBabel08132112143D
CC1SCC2(C1)N=C(NC2=O)S
 22 23  0  0  1  0  0  0  0  0999 V2000
   -3.1278    1.9372    5.9710 C   0  0  0  0  0  0  0  0  0  0  0  0
   -2.5322    1.0248    4.9084 C   0  0  2  0  0  0  0  0  0  0  0  0
   -2.6810   -0.7634    5.3851 S   0  0  0  0  0  0  0  0  0  0  0  0
   -1.0343   -1.2124    4.6965 C   0  0  0  0  0  0  0  0  0  0  0  0
   -0.5293    0.0068    3.9033 C   0  0  2  0  0  0  0  0  0  0  0  0
   -1.0407    1.2397    4.6625 C   0  0  0  0  0  0  0  0  0  0  0  0
   -1.0271    0.0003    2.5212 N   0  0  0  0  0  0  0  0  0  0  0  0
    0.0000    0.0000    1.7627 C   0  0  0  0  0  0  0  0  0  0  0  0
    1.2340   -0.0000    2.4182 N   0  0  0  0  0  0  0  0  0  0  0  0
    1.0084   -0.0010    3.7888 C   0  0  0  0  0  0  0  0  0  0  0  0
    1.8385   -0.0049    4.6632 O   0  0  0  0  0  0  0  0  0  0  0  0
    0.0000    0.0000    0.0000 S   0  0  0  0  0  0  0  0  0  0  0  0
   -4.1954    1.7223    6.1317 H   0  0  0  0  0  0  0  0  0  0  0  0
   -2.6059    1.8118    6.9325 H   0  0  0  0  0  0  0  0  0  0  0  0
   -3.0430    2.9917    5.6597 H   0  0  0  0  0  0  0  0  0  0  0  0
   -3.0685    1.1477    3.9556 H   0  0  0  0  0  0  0  0  0  0  0  0
   -0.3316   -1.4296    5.5141 H   0  0  0  0  0  0  0  0  0  0  0  0
   -1.1208   -2.0931    4.0458 H   0  0  0  0  0  0  0  0  0  0  0  0
   -0.8550    2.1628    4.0907 H   0  0  0  0  0  0  0  0  0  0  0  0
   -0.4951    1.3065    5.6180 H   0  0  0  0  0  0  0  0  0  0  0  0
    2.1527   -0.0050    1.9895 H   0  0  0  0  0  0  0  0  0  0  0  0
   -1.3499   -0.0130   -0.0703 H   0  0  0  0  0  0  0  0  0  0  0  0
  1 13  1  0  0  0  0
  1 14  1  0  0  0  0
  2 16  1  6  0  0  0
  2  3  1  0  0  0  0
  2  1  1  0  0  0  0
  4  3  1  0  0  0  0
  4 17  1  0  0  0  0
  5  7  1  6  0  0  0
  5  6  1  0  0  0  0
  5  4  1  0  0  0  0
  6  2  1  0  0  0  0
  6 20  1  0  0  0  0
  8  9  1  0  0  0  0
  8  7  2  0  0  0  0
  9 10  1  0  0  0  0
 10  5  1  0  0  0  0
 10 11  2  0  0  0  0
 12  8  1  0  0  0  0
 15  1  1  0  0  0  0
 18  4  1  0  0  0  0
 19  6  1  0  0  0  0
 21  9  1  0  0  0  0
 22 12  1  0  0  0  0
M  END
