97201823.xyz
 OpenBabel08132112143D
C#Cc1nc(sc1C)S
 14 14  0  0  1  0  0  0  0  0999 V2000
   -2.5438   -0.0002    5.7619 C   0  0  0  0  0  0  0  0  0  0  0  0
   -1.7219   -0.0001    4.8686 C   0  0  0  0  0  0  0  0  0  0  0  0
   -0.7184   -0.0000    3.8553 C   0  0  0  0  0  0  0  0  0  0  0  0
   -1.0554   -0.0000    2.5129 N   0  0  0  0  0  0  0  0  0  0  0  0
    0.0000   -0.0000    1.7643 C   0  0  0  0  0  0  0  0  0  0  0  0
    1.5271   -0.0000    2.6432 S   0  0  0  0  0  0  0  0  0  0  0  0
    0.6350   -0.0000    4.1385 C   0  0  2  0  0  0  0  0  0  0  0  0
    1.2995   -0.0001    5.4784 C   0  0  0  0  0  0  0  0  0  0  0  0
    0.0000    0.0000    0.0000 S   0  0  0  0  0  0  0  0  0  0  0  0
   -3.2822   -0.0003    6.5411 H   0  0  0  0  0  0  0  0  0  0  0  0
    1.0010    0.8866    6.0608 H   0  0  0  0  0  0  0  0  0  0  0  0
    1.0016   -0.8871    6.0605 H   0  0  0  0  0  0  0  0  0  0  0  0
    2.3947    0.0003    5.3914 H   0  0  0  0  0  0  0  0  0  0  0  0
   -1.3506    0.0002   -0.0705 H   0  0  0  0  0  0  0  0  0  0  0  0
  1 10  1  0  0  0  0
  2  1  3  0  0  0  0
  3  7  1  0  0  0  0
  3  2  1  0  0  0  0
  4  3  2  0  0  0  0
  5  4  2  0  0  0  0
  5  6  1  0  0  0  0
  6  7  1  0  0  0  0
  7  8  1  6  0  0  0
  8 12  1  0  0  0  0
  8 11  1  0  0  0  0
  9  5  1  0  0  0  0
 13  8  1  0  0  0  0
 14  9  1  0  0  0  0
M  RAD  1   7   2
M  END
