97218992.xyz
 OpenBabel08132112143D
SCCn1cncc(c1=O)Br
 18 18  0  0  1  0  0  0  0  0999 V2000
    0.0000    0.0000    0.0000 S   0  0  0  0  0  0  0  0  0  0  0  0
   -0.0000   -0.0000    1.8294 C   0  0  0  0  0  0  0  0  0  0  0  0
    1.4137    0.0000    2.4095 C   0  0  0  0  0  0  0  0  0  0  0  0
    1.4041   -0.0274    3.8761 N   0  0  0  0  0  0  0  0  0  0  0  0
    1.6178   -1.1874    4.5561 C   0  0  0  0  0  0  0  0  0  0  0  0
    1.6028   -1.3050    5.8477 N   0  0  0  0  0  0  0  0  0  0  0  0
    1.3519   -0.1728    6.5683 C   0  0  0  0  0  0  0  0  0  0  0  0
    1.1248    1.0461    5.9886 C   0  0  1  0  0  0  0  0  0  0  0  0
    1.1261    1.2010    4.5376 C   0  0  0  0  0  0  0  0  0  0  0  0
    0.9221    2.2151    3.8987 O   0  0  0  0  0  0  0  0  0  0  0  0
    0.7846    2.5910    7.0142 Br  0  0  0  0  0  0  0  0  0  0  0  0
    0.4263    1.2759   -0.1475 H   0  0  0  0  0  0  0  0  0  0  0  0
   -0.5647    0.8628    2.2069 H   0  0  0  0  0  0  0  0  0  0  0  0
   -0.5367   -0.9153    2.1231 H   0  0  0  0  0  0  0  0  0  0  0  0
    1.9786   -0.8707    2.0498 H   0  0  0  0  0  0  0  0  0  0  0  0
    1.9398    0.9133    2.1015 H   0  0  0  0  0  0  0  0  0  0  0  0
    1.8199   -2.0671    3.9338 H   0  0  0  0  0  0  0  0  0  0  0  0
    1.3385   -0.2768    7.6572 H   0  0  0  0  0  0  0  0  0  0  0  0
  1  2  1  0  0  0  0
  2 14  1  0  0  0  0
  2 13  1  0  0  0  0
  2  3  1  0  0  0  0
  3  4  1  0  0  0  0
  4  9  1  0  0  0  0
  4  5  1  0  0  0  0
  5  6  2  0  0  0  0
  6  7  2  0  0  0  0
  7 18  1  0  0  0  0
  8  7  1  0  0  0  0
  8 11  1  6  0  0  0
  9  8  1  0  0  0  0
 10  9  2  0  0  0  0
 12  1  1  0  0  0  0
 15  3  1  0  0  0  0
 16  3  1  0  0  0  0
 17  5  1  0  0  0  0
M  RAD  1   8   2
M  END
