97228265.xyz
 OpenBabel08132112143D
Cc1nnc(n1C1CCSCC1)S
 26 27  0  0  0  0  0  0  0  0999 V2000
   -1.5670    0.0439    5.0365 C   0  0  0  0  0  0  0  0  0  0  0  0
   -0.7103    0.0302    3.8172 C   0  0  0  0  0  0  0  0  0  0  0  0
    0.6004    0.0179    3.8352 N   0  0  0  0  0  0  0  0  0  0  0  0
    1.0545   -0.0000    2.5387 N   0  0  0  0  0  0  0  0  0  0  0  0
   -0.0000   -0.0000    1.7633 C   0  0  0  0  0  0  0  0  0  0  0  0
   -1.1581    0.0110    2.5046 N   0  0  0  0  0  0  0  0  0  0  0  0
   -2.5146    0.0843    1.9677 C   0  0  0  0  0  0  0  0  0  0  0  0
   -3.0862    1.5161    2.0760 C   0  0  0  0  0  0  0  0  0  0  0  0
   -4.6184    1.5445    2.0316 C   0  0  0  0  0  0  0  0  0  0  0  0
   -5.3025    0.3349    0.8420 S   0  0  0  0  0  0  0  0  0  0  0  0
   -4.6723   -1.2050    1.6450 C   0  0  0  0  0  0  0  0  0  0  0  0
   -3.4628   -0.9668    2.5601 C   0  0  0  0  0  0  0  0  0  0  0  0
    0.0000    0.0000    0.0000 S   0  0  0  0  0  0  0  0  0  0  0  0
   -2.1092   -0.9052    5.1730 H   0  0  0  0  0  0  0  0  0  0  0  0
   -2.3096    0.8569    5.0197 H   0  0  0  0  0  0  0  0  0  0  0  0
   -0.9063    0.1893    5.9008 H   0  0  0  0  0  0  0  0  0  0  0  0
   -2.4174   -0.1577    0.8990 H   0  0  0  0  0  0  0  0  0  0  0  0
   -2.7460    1.9732    3.0196 H   0  0  0  0  0  0  0  0  0  0  0  0
   -2.6654    2.1211    1.2587 H   0  0  0  0  0  0  0  0  0  0  0  0
   -5.0533    1.3545    3.0250 H   0  0  0  0  0  0  0  0  0  0  0  0
   -4.9872    2.5278    1.7066 H   0  0  0  0  0  0  0  0  0  0  0  0
   -4.3978   -1.8738    0.8150 H   0  0  0  0  0  0  0  0  0  0  0  0
   -5.4859   -1.6877    2.2071 H   0  0  0  0  0  0  0  0  0  0  0  0
   -2.9220   -1.9164    2.6961 H   0  0  0  0  0  0  0  0  0  0  0  0
   -3.8041   -0.6504    3.5562 H   0  0  0  0  0  0  0  0  0  0  0  0
    1.3502   -0.0443   -0.0485 H   0  0  0  0  0  0  0  0  0  0  0  0
  1 14  1  0  0  0  0
  1 16  1  0  0  0  0
  2  3  2  0  0  0  0
  2  1  1  0  0  0  0
  4  3  1  0  0  0  0
  5  6  1  0  0  0  0
  5  4  2  0  0  0  0
  6  2  1  0  0  0  0
  7  8  1  0  0  0  0
  7  6  1  0  0  0  0
  7 12  1  0  0  0  0
  8 18  1  0  0  0  0
  9  8  1  0  0  0  0
  9 20  1  0  0  0  0
 10 11  1  0  0  0  0
 10  9  1  0  0  0  0
 11 23  1  0  0  0  0
 11 12  1  0  0  0  0
 12 24  1  0  0  0  0
 12 25  1  0  0  0  0
 13  5  1  0  0  0  0
 15  1  1  0  0  0  0
 17  7  1  0  0  0  0
 19  8  1  0  0  0  0
 21  9  1  0  0  0  0
 22 11  1  0  0  0  0
 26 13  1  0  0  0  0
M  END
