97227995.xyz
 OpenBabel08132112143D
Sc1nc(cn1CC1CCC1)C
 26 27  0  0  0  0  0  0  0  0999 V2000
    0.0000    0.0000    0.0000 S   0  0  0  0  0  0  0  0  0  0  0  0
    0.0000    0.0000    1.7703 C   0  0  0  0  0  0  0  0  0  0  0  0
   -1.0597   -0.0010    2.5463 N   0  0  0  0  0  0  0  0  0  0  0  0
   -0.5777   -0.0112    3.8414 C   0  0  0  0  0  0  0  0  0  0  0  0
    0.7992   -0.0194    3.8218 C   0  0  0  0  0  0  0  0  0  0  0  0
    1.1685   -0.0000    2.4818 N   0  0  0  0  0  0  0  0  0  0  0  0
    2.5178   -0.0882    1.9496 C   0  0  0  0  0  0  0  0  0  0  0  0
    2.9386   -1.5178    1.6424 C   0  0  0  0  0  0  0  0  0  0  0  0
    4.4081   -1.7767    1.2232 C   0  0  0  0  0  0  0  0  0  0  0  0
    4.3846   -3.0637    2.0866 C   0  0  0  0  0  0  0  0  0  0  0  0
    3.1353   -2.5095    2.8176 C   0  0  0  0  0  0  0  0  0  0  0  0
   -1.4990   -0.0071    5.0178 C   0  0  0  0  0  0  0  0  0  0  0  0
   -1.3430    0.1293   -0.0589 H   0  0  0  0  0  0  0  0  0  0  0  0
    1.5416   -0.0265    4.6153 H   0  0  0  0  0  0  0  0  0  0  0  0
    3.2007    0.3601    2.6884 H   0  0  0  0  0  0  0  0  0  0  0  0
    2.5739    0.5330    1.0401 H   0  0  0  0  0  0  0  0  0  0  0  0
    2.2457   -1.9413    0.8971 H   0  0  0  0  0  0  0  0  0  0  0  0
    5.0854   -1.0152    1.6444 H   0  0  0  0  0  0  0  0  0  0  0  0
    4.6226   -1.8763    0.1485 H   0  0  0  0  0  0  0  0  0  0  0  0
    5.2745   -3.2851    2.6945 H   0  0  0  0  0  0  0  0  0  0  0  0
    4.1444   -3.9536    1.4848 H   0  0  0  0  0  0  0  0  0  0  0  0
    2.3124   -3.2032    3.0426 H   0  0  0  0  0  0  0  0  0  0  0  0
    3.4063   -1.9808    3.7462 H   0  0  0  0  0  0  0  0  0  0  0  0
   -2.1702   -0.8813    4.9941 H   0  0  0  0  0  0  0  0  0  0  0  0
   -2.1395    0.8902    5.0136 H   0  0  0  0  0  0  0  0  0  0  0  0
   -0.9377   -0.0269    5.9634 H   0  0  0  0  0  0  0  0  0  0  0  0
  1  2  1  0  0  0  0
  2  6  1  0  0  0  0
  2  3  2  0  0  0  0
  3  4  2  0  0  0  0
  4 12  1  0  0  0  0
  5  4  1  0  0  0  0
  5 14  1  0  0  0  0
  6  5  1  0  0  0  0
  7  6  1  0  0  0  0
  7 15  1  0  0  0  0
  8  7  1  0  0  0  0
  8 11  1  0  0  0  0
  9  8  1  0  0  0  0
  9 18  1  0  0  0  0
  9 10  1  0  0  0  0
 10 20  1  0  0  0  0
 10 11  1  0  0  0  0
 11 22  1  0  0  0  0
 11 23  1  0  0  0  0
 12 26  1  0  0  0  0
 13  1  1  0  0  0  0
 16  7  1  0  0  0  0
 17  8  1  0  0  0  0
 19  9  1  0  0  0  0
 21 10  1  0  0  0  0
 24 12  1  0  0  0  0
 25 12  1  0  0  0  0
M  RAD  1   5   2
M  END
