97237269.xyz
 OpenBabel08132112143D
Cc1ccncc1NC(=O)CCS
 25 25  0  0  1  0  0  0  0  0999 V2000
    2.4727   -2.6280   -1.4787 C   0  0  0  0  0  0  0  0  0  0  0  0
    3.0756   -3.4722   -0.3881 C   0  0  0  0  0  0  0  0  0  0  0  0
    3.7505   -4.6596   -0.6805 C   0  0  0  0  0  0  0  0  0  0  0  0
    4.3057   -5.4184    0.3511 C   0  0  0  0  0  0  0  0  0  0  0  0
    4.2269   -5.0605    1.6317 N   0  0  0  0  0  0  0  0  0  0  0  0
    3.5877   -3.9311    1.9403 C   0  0  0  0  0  0  0  0  0  0  0  0
    2.9888   -3.0983    0.9729 C   0  0  1  0  0  0  0  0  0  0  0  0
    2.3096   -1.9090    1.2945 N   0  0  0  0  0  0  0  0  0  0  0  0
    2.1536   -1.3193    2.5264 C   0  0  0  0  0  0  0  0  0  0  0  0
    2.6035   -1.7639    3.5658 O   0  0  0  0  0  0  0  0  0  0  0  0
    1.3741   -0.0000    2.5182 C   0  0  0  0  0  0  0  0  0  0  0  0
    0.0000   -0.0000    1.8415 C   0  0  0  0  0  0  0  0  0  0  0  0
    0.0000    0.0000    0.0000 S   0  0  0  0  0  0  0  0  0  0  0  0
    1.3816   -2.5208   -1.3606 H   0  0  0  0  0  0  0  0  0  0  0  0
    2.8916   -1.6070   -1.4793 H   0  0  0  0  0  0  0  0  0  0  0  0
    2.6633   -3.0692   -2.4663 H   0  0  0  0  0  0  0  0  0  0  0  0
    3.8434   -4.9902   -1.7181 H   0  0  0  0  0  0  0  0  0  0  0  0
    4.8353   -6.3518    0.1275 H   0  0  0  0  0  0  0  0  0  0  0  0
    3.5355   -3.6490    2.9911 H   0  0  0  0  0  0  0  0  0  0  0  0
    1.8508   -1.4287    0.5220 H   0  0  0  0  0  0  0  0  0  0  0  0
    1.2447    0.2512    3.5807 H   0  0  0  0  0  0  0  0  0  0  0  0
    2.0093    0.7896    2.0792 H   0  0  0  0  0  0  0  0  0  0  0  0
   -0.5751   -0.8980    2.1154 H   0  0  0  0  0  0  0  0  0  0  0  0
   -0.5841    0.8683    2.1779 H   0  0  0  0  0  0  0  0  0  0  0  0
    0.6346    1.1862   -0.1537 H   0  0  0  0  0  0  0  0  0  0  0  0
  1 14  1  0  0  0  0
  1  2  1  0  0  0  0
  2  7  1  0  0  0  0
  3  2  2  0  0  0  0
  3  4  1  0  0  0  0
  4  5  2  0  0  0  0
  5  6  2  0  0  0  0
  6 19  1  0  0  0  0
  7  8  1  6  0  0  0
  7  6  1  0  0  0  0
  8  9  1  0  0  0  0
  9 10  2  0  0  0  0
 11  9  1  0  0  0  0
 11 21  1  0  0  0  0
 12 23  1  0  0  0  0
 12 24  1  0  0  0  0
 12 11  1  0  0  0  0
 13 12  1  0  0  0  0
 15  1  1  0  0  0  0
 16  1  1  0  0  0  0
 17  3  1  0  0  0  0
 18  4  1  0  0  0  0
 20  8  1  0  0  0  0
 22 11  1  0  0  0  0
 25 13  1  0  0  0  0
M  RAD  1   7   2
M  END
