97237316.xyz
 OpenBabel08132112143D
Sc1cc(nn1C)C1CCCC1
 26 27  0  0  0  0  0  0  0  0999 V2000
    0.0000    0.0000    0.0000 S   0  0  0  0  0  0  0  0  0  0  0  0
   -0.0000    0.0000    1.7654 C   0  0  0  0  0  0  0  0  0  0  0  0
   -1.0684    0.1021    2.6467 C   0  0  0  0  0  0  0  0  0  0  0  0
   -0.4785    0.1442    3.9356 C   0  0  0  0  0  0  0  0  0  0  0  0
    0.8523    0.0730    3.8423 N   0  0  0  0  0  0  0  0  0  0  0  0
    1.1361    0.0000    2.5345 N   0  0  0  0  0  0  0  0  0  0  0  0
    2.5106   -0.1262    2.1046 C   0  0  0  0  0  0  0  0  0  0  0  0
   -1.1495    0.2549    5.2689 C   0  0  0  0  0  0  0  0  0  0  0  0
   -1.9944    1.5299    5.4721 C   0  0  0  0  0  0  0  0  0  0  0  0
   -2.8883    1.2248    6.6951 C   0  0  0  0  0  0  0  0  0  0  0  0
   -2.9147   -0.3263    6.8251 C   0  0  0  0  0  0  0  0  0  0  0  0
   -2.1676   -0.8559    5.5892 C   0  0  0  0  0  0  0  0  0  0  0  0
    0.2265   -1.3259   -0.1824 H   0  0  0  0  0  0  0  0  0  0  0  0
   -2.1201    0.1410    2.3763 H   0  0  0  0  0  0  0  0  0  0  0  0
    2.8853   -1.1485    2.2765 H   0  0  0  0  0  0  0  0  0  0  0  0
    3.1293    0.5777    2.6772 H   0  0  0  0  0  0  0  0  0  0  0  0
    2.5702    0.1067    1.0340 H   0  0  0  0  0  0  0  0  0  0  0  0
   -0.3498    0.2307    6.0285 H   0  0  0  0  0  0  0  0  0  0  0  0
   -2.6138    1.6903    4.5737 H   0  0  0  0  0  0  0  0  0  0  0  0
   -1.3730    2.4294    5.5970 H   0  0  0  0  0  0  0  0  0  0  0  0
   -3.8972    1.6463    6.5688 H   0  0  0  0  0  0  0  0  0  0  0  0
   -2.4724    1.6802    7.6072 H   0  0  0  0  0  0  0  0  0  0  0  0
   -2.3856   -0.6372    7.7400 H   0  0  0  0  0  0  0  0  0  0  0  0
   -3.9364   -0.7288    6.8998 H   0  0  0  0  0  0  0  0  0  0  0  0
   -2.8596   -0.9647    4.7360 H   0  0  0  0  0  0  0  0  0  0  0  0
   -1.6927   -1.8359    5.7490 H   0  0  0  0  0  0  0  0  0  0  0  0
  1  2  1  0  0  0  0
  2  6  1  0  0  0  0
  2  3  2  0  0  0  0
  3  4  1  0  0  0  0
  4  8  1  0  0  0  0
  5  4  2  0  0  0  0
  6  5  1  0  0  0  0
  7 15  1  0  0  0  0
  7  6  1  0  0  0  0
  7 16  1  0  0  0  0
  8  9  1  0  0  0  0
  8 12  1  0  0  0  0
  8 18  1  0  0  0  0
  9 20  1  0  0  0  0
  9 10  1  0  0  0  0
 10 11  1  0  0  0  0
 10 22  1  0  0  0  0
 11 24  1  0  0  0  0
 11 23  1  0  0  0  0
 12 26  1  0  0  0  0
 12 11  1  0  0  0  0
 13  1  1  0  0  0  0
 14  3  1  0  0  0  0
 17  7  1  0  0  0  0
 19  9  1  0  0  0  0
 21 10  1  0  0  0  0
 25 12  1  0  0  0  0
M  END
