000-739-500.xyz
 OpenBabel07262113343D
SC1=NC(=O)/C(=C/c2cn(nc2c2cc(C)ccc2C)c2ccccc2)/S1
 44 47  0  0  0  0  0  0  0  0999 V2000
   -0.3330    2.7810    9.2219 C   0  0  0  0  0  0  0  0  0  0  0  0
    0.7590    1.7463    9.3196 C   0  0  0  0  0  0  0  0  0  0  0  0
    1.0339    1.0689   10.5120 C   0  0  0  0  0  0  0  0  0  0  0  0
    2.0516    0.1144   10.5729 C   0  0  0  0  0  0  0  0  0  0  0  0
    2.8331   -0.2113    9.4586 C   0  0  0  0  0  0  0  0  0  0  0  0
    3.9171   -1.2517    9.5784 C   0  0  0  0  0  0  0  0  0  0  0  0
    2.5575    0.4638    8.2434 C   0  0  0  0  0  0  0  0  0  0  0  0
    1.5373    1.4273    8.1999 C   0  0  0  0  0  0  0  0  0  0  0  0
    3.3022    0.1720    7.0034 C   0  0  0  0  0  0  0  0  0  0  0  0
    4.6235    0.0469    6.9835 N   0  0  0  0  0  0  0  0  0  0  0  0
    4.9623   -0.1882    5.6954 N   0  0  0  0  0  0  0  0  0  0  0  0
    3.8772   -0.2211    4.8780 C   0  0  0  0  0  0  0  0  0  0  0  0
    2.7563    0.0044    5.6762 C   0  0  0  0  0  0  0  0  0  0  0  0
    1.3637    0.0050    5.3111 C   0  0  0  0  0  0  0  0  0  0  0  0
    0.8045   -0.0086    4.0793 C   0  0  0  0  0  0  0  0  0  0  0  0
    1.6203    0.0000    2.5156 S   0  0  0  0  0  0  0  0  0  0  0  0
    0.0000    0.0000    1.7388 C   0  0  0  0  0  0  0  0  0  0  0  0
    0.0000    0.0000    0.0000 S   0  0  0  0  0  0  0  0  0  0  0  0
   -1.0288   -0.0017    2.5115 N   0  0  0  0  0  0  0  0  0  0  0  0
   -0.6894   -0.0050    3.8799 C   0  0  0  0  0  0  0  0  0  0  0  0
   -1.4932    0.0014    4.7835 O   0  0  0  0  0  0  0  0  0  0  0  0
    6.3219   -0.3766    5.3402 C   0  0  0  0  0  0  0  0  0  0  0  0
    6.7315   -0.2371    4.0076 C   0  0  0  0  0  0  0  0  0  0  0  0
    8.0698   -0.4475    3.6727 C   0  0  0  0  0  0  0  0  0  0  0  0
    9.0031   -0.7812    4.6577 C   0  0  0  0  0  0  0  0  0  0  0  0
    8.5874   -0.9033    5.9872 C   0  0  0  0  0  0  0  0  0  0  0  0
    7.2517   -0.7052    6.3352 C   0  0  0  0  0  0  0  0  0  0  0  0
   -1.0971    2.4832    8.4849 H   0  0  0  0  0  0  0  0  0  0  0  0
    0.0671    3.7552    8.8957 H   0  0  0  0  0  0  0  0  0  0  0  0
   -0.8356    2.9289   10.1887 H   0  0  0  0  0  0  0  0  0  0  0  0
    0.4451    1.2882   11.4068 H   0  0  0  0  0  0  0  0  0  0  0  0
    2.2425   -0.4021   11.5174 H   0  0  0  0  0  0  0  0  0  0  0  0
    3.8877   -1.9689    8.7442 H   0  0  0  0  0  0  0  0  0  0  0  0
    4.9159   -0.7899    9.5521 H   0  0  0  0  0  0  0  0  0  0  0  0
    3.8168   -1.8086   10.5214 H   0  0  0  0  0  0  0  0  0  0  0  0
    1.3574    1.9618    7.2643 H   0  0  0  0  0  0  0  0  0  0  0  0
    3.9626   -0.4571    3.8224 H   0  0  0  0  0  0  0  0  0  0  0  0
    0.6348    0.0163    6.1270 H   0  0  0  0  0  0  0  0  0  0  0  0
   -2.3001   -0.0096   -0.3022 Au  0  0  0  0  0  0  0  0  0  0  0  0
    6.0184    0.0533    3.2352 H   0  0  0  0  0  0  0  0  0  0  0  0
    8.3847   -0.3369    2.6327 H   0  0  0  0  0  0  0  0  0  0  0  0
   10.0501   -0.9402    4.3912 H   0  0  0  0  0  0  0  0  0  0  0  0
    9.3101   -1.1602    6.7651 H   0  0  0  0  0  0  0  0  0  0  0  0
    6.9098   -0.7975    7.3648 H   0  0  0  0  0  0  0  0  0  0  0  0
  1  2  1  0  0  0  0
  1 30  1  0  0  0  0
  2  3  2  0  0  0  0
  3  4  1  0  0  0  0
  3 31  1  0  0  0  0
  4 32  1  0  0  0  0
  5  6  1  0  0  0  0
  5  4  2  0  0  0  0
  6 35  1  0  0  0  0
  7  5  1  0  0  0  0
  8  7  2  0  0  0  0
  8  2  1  0  0  0  0
  9  7  1  0  0  0  0
 10  9  2  0  0  0  0
 11 10  1  0  0  0  0
 12 13  2  0  0  0  0
 12 11  1  0  0  0  0
 13  9  1  0  0  0  0
 14 13  1  0  0  0  0
 14 38  1  0  0  0  0
 15 14  2  0  0  0  0
 16 15  1  0  0  0  0
 17 19  2  0  0  0  0
 17 16  1  0  0  0  0
 18 17  1  0  0  0  0
 19 20  2  0  0  0  0
 20 15  1  0  0  0  0
 20 21  2  0  0  0  0
 22 11  1  0  0  0  0
 22 27  2  0  0  0  0
 23 22  1  0  0  0  0
 24 23  2  0  0  0  0
 24 25  1  0  0  0  0
 25 26  2  0  0  0  0
 26 27  1  0  0  0  0
 26 43  1  0  0  0  0
 27 44  1  0  0  0  0
 28  1  1  0  0  0  0
 29  1  1  0  0  0  0
 33  6  1  0  0  0  0
 34  6  1  0  0  0  0
 36  8  1  0  0  0  0
 37 12  1  0  0  0  0
 39 18  1  0  0  0  0
 40 23  1  0  0  0  0
 41 24  1  0  0  0  0
 42 25  1  0  0  0  0
M  END
