000-735-418.xyz
 OpenBabel07262113343D
COc1ccc(cc1/C=C/1\N=C(N(C1=O)c1cccc(c1)C(F)(F)F)S)Br
 39 41  0  0  0  0  0  0  0  0999 V2000
   -3.6508   -0.5835    8.4274 C   0  0  0  0  0  0  0  0  0  0  0  0
   -3.0433   -0.4701    7.1591 O   0  0  0  0  0  0  0  0  0  0  0  0
   -3.8097   -0.4598    6.0464 C   0  0  0  0  0  0  0  0  0  0  0  0
   -5.2070   -0.5543    6.0688 C   0  0  0  0  0  0  0  0  0  0  0  0
   -5.9350   -0.5373    4.8775 C   0  0  0  0  0  0  0  0  0  0  0  0
   -5.2641   -0.4254    3.6571 C   0  0  0  0  0  0  0  0  0  0  0  0
   -6.2665   -0.4030    2.0346 Br  0  0  0  0  0  0  0  0  0  0  0  0
   -3.8779   -0.3310    3.6115 C   0  0  0  0  0  0  0  0  0  0  0  0
   -3.1215   -0.3456    4.8025 C   0  0  0  0  0  0  0  0  0  0  0  0
   -1.6776   -0.2484    4.8120 C   0  0  0  0  0  0  0  0  0  0  0  0
   -0.8241   -0.1393    3.7557 C   0  0  0  0  0  0  0  0  0  0  0  0
   -1.1245   -0.0675    2.4004 N   0  0  0  0  0  0  0  0  0  0  0  0
   -0.0000   -0.0000    1.7521 C   0  0  0  0  0  0  0  0  0  0  0  0
    0.0000    0.0000    0.0000 S   0  0  0  0  0  0  0  0  0  0  0  0
    1.1291    0.0000    2.5938 N   0  0  0  0  0  0  0  0  0  0  0  0
    0.6520   -0.0573    3.9344 C   0  0  0  0  0  0  0  0  0  0  0  0
    1.3415   -0.0415    4.9283 O   0  0  0  0  0  0  0  0  0  0  0  0
    2.5009    0.0343    2.2604 C   0  0  0  0  0  0  0  0  0  0  0  0
    3.3470    0.9519    2.9004 C   0  0  0  0  0  0  0  0  0  0  0  0
    4.6993    1.0017    2.5615 C   0  0  0  0  0  0  0  0  0  0  0  0
    5.2153    0.1618    1.5720 C   0  0  0  0  0  0  0  0  0  0  0  0
    4.3692   -0.7572    0.9445 C   0  0  0  0  0  0  0  0  0  0  0  0
    3.0220   -0.8461    1.3044 C   0  0  0  0  0  0  0  0  0  0  0  0
    4.8680   -1.6013   -0.1980 C   0  0  0  0  0  0  0  0  0  0  0  0
    6.2016   -1.7475   -0.1791 F   0  0  0  0  0  0  0  0  0  0  0  0
    4.5511   -1.0311   -1.3844 F   0  0  0  0  0  0  0  0  0  0  0  0
    4.3196   -2.8259   -0.1989 F   0  0  0  0  0  0  0  0  0  0  0  0
   -2.8368   -0.5709    9.1633 H   0  0  0  0  0  0  0  0  0  0  0  0
   -4.2122   -1.5291    8.5258 H   0  0  0  0  0  0  0  0  0  0  0  0
   -4.3327    0.2613    8.6285 H   0  0  0  0  0  0  0  0  0  0  0  0
   -5.7438   -0.6423    7.0123 H   0  0  0  0  0  0  0  0  0  0  0  0
   -7.0231   -0.6116    4.9017 H   0  0  0  0  0  0  0  0  0  0  0  0
   -3.3478   -0.2426    2.6640 H   0  0  0  0  0  0  0  0  0  0  0  0
   -1.1957   -0.2642    5.7913 H   0  0  0  0  0  0  0  0  0  0  0  0
    1.7917    1.3537   -0.5789 Au  0  0  0  0  0  0  0  0  0  0  0  0
    2.9387    1.6143    3.6627 H   0  0  0  0  0  0  0  0  0  0  0  0
    5.3558    1.7127    3.0673 H   0  0  0  0  0  0  0  0  0  0  0  0
    6.2677    0.2125    1.2906 H   0  0  0  0  0  0  0  0  0  0  0  0
    2.3721   -1.5787    0.8282 H   0  0  0  0  0  0  0  0  0  0  0  0
  1 29  1  0  0  0  0
  1 30  1  0  0  0  0
  1 28  1  0  0  0  0
  2  1  1  0  0  0  0
  3  4  1  0  0  0  0
  3  2  1  0  0  0  0
  4 31  1  0  0  0  0
  5 32  1  0  0  0  0
  5  4  2  0  0  0  0
  6  5  1  0  0  0  0
  7  6  1  0  0  0  0
  8  6  2  0  0  0  0
  8  9  1  0  0  0  0
  9 10  1  0  0  0  0
  9  3  2  0  0  0  0
 10 34  1  0  0  0  0
 11 16  1  0  0  0  0
 11 10  1  0  0  0  0
 12 11  2  0  0  0  0
 13 12  2  0  0  0  0
 13 15  1  0  0  0  0
 14 13  1  0  0  0  0
 15 16  1  0  0  0  0
 16 17  2  0  0  0  0
 18 15  1  0  0  0  0
 18 19  2  0  0  0  0
 19 36  1  0  0  0  0
 20 19  1  0  0  0  0
 20 37  1  0  0  0  0
 21 20  2  0  0  0  0
 22 23  2  0  0  0  0
 22 21  1  0  0  0  0
 23 18  1  0  0  0  0
 24 25  1  0  0  0  0
 24 22  1  0  0  0  0
 26 24  1  0  0  0  0
 27 24  1  0  0  0  0
 33  8  1  0  0  0  0
 35 14  1  0  0  0  0
 38 21  1  0  0  0  0
 39 23  1  0  0  0  0
M  RAD  1  10   2
M  END
