000-760-614.xyz
 OpenBabel07262113353D
Oc1ccc(cc1)n1c(C)cc(c1C)/C=C/1\C(=O)N=C(N(C1=O)c1ccc(cc1)F)S
 49 52  0  0  0  0  0  0  0  0999 V2000
   -3.3556   -0.0236    9.3789 C   0  0  0  0  0  0  0  0  0  0  0  0
   -2.0772   -0.0222    8.6121 C   0  0  0  0  0  0  0  0  0  0  0  0
   -1.8343   -0.0160    7.2665 C   0  0  0  0  0  0  0  0  0  0  0  0
   -0.4021   -0.0166    7.0683 C   0  0  0  0  0  0  0  0  0  0  0  0
    0.4134   -0.0121    5.9031 C   0  0  0  0  0  0  0  0  0  0  0  0
    0.1979   -0.0059    4.5390 C   0  0  0  0  0  0  0  0  0  0  0  0
   -1.1126   -0.0010    3.8454 C   0  0  0  0  0  0  0  0  0  0  0  0
   -2.1864    0.0021    4.4258 O   0  0  0  0  0  0  0  0  0  0  0  0
   -1.1018   -0.0003    2.4459 N   0  0  0  0  0  0  0  0  0  0  0  0
    0.0000    0.0000    1.7754 C   0  0  0  0  0  0  0  0  0  0  0  0
    0.0000    0.0000    0.0000 S   0  0  0  0  0  0  0  0  0  0  0  0
    1.2651    0.0000    2.3352 N   0  0  0  0  0  0  0  0  0  0  0  0
    1.4434   -0.0039    3.7419 C   0  0  0  0  0  0  0  0  0  0  0  0
    2.5759   -0.0054    4.1896 O   0  0  0  0  0  0  0  0  0  0  0  0
    2.4424    0.0030    1.5119 C   0  0  0  0  0  0  0  0  0  0  0  0
    3.0232   -1.2083    1.1256 C   0  0  0  0  0  0  0  0  0  0  0  0
    4.1636   -1.2106    0.3244 C   0  0  0  0  0  0  0  0  0  0  0  0
    4.7082    0.0094   -0.0722 C   0  0  0  0  0  0  0  0  0  0  0  0
    5.8029    0.0123   -0.8433 F   0  0  0  0  0  0  0  0  0  0  0  0
    4.1477    1.2263    0.3111 C   0  0  0  0  0  0  0  0  0  0  0  0
    3.0075    1.2177    1.1127 C   0  0  0  0  0  0  0  0  0  0  0  0
    0.1825   -0.0234    8.3600 C   0  0  0  0  0  0  0  0  0  0  0  0
    1.6075   -0.0284    8.7977 C   0  0  0  0  0  0  0  0  0  0  0  0
   -0.8340   -0.0262    9.2696 N   0  0  0  0  0  0  0  0  0  0  0  0
   -0.6673   -0.0330   10.6868 C   0  0  0  0  0  0  0  0  0  0  0  0
   -0.5688    1.1711   11.3888 C   0  0  0  0  0  0  0  0  0  0  0  0
   -0.4101    1.1659   12.7747 C   0  0  0  0  0  0  0  0  0  0  0  0
   -0.3506   -0.0501   13.4713 C   0  0  0  0  0  0  0  0  0  0  0  0
   -0.1982   -0.1172   14.8144 O   0  0  0  0  0  0  0  0  0  0  0  0
   -0.4518   -1.2595   12.7661 C   0  0  0  0  0  0  0  0  0  0  0  0
   -0.6094   -1.2467   11.3836 C   0  0  0  0  0  0  0  0  0  0  0  0
   -3.4439    0.8580   10.0359 H   0  0  0  0  0  0  0  0  0  0  0  0
   -3.4499   -0.9134   10.0238 H   0  0  0  0  0  0  0  0  0  0  0  0
   -4.2018   -0.0161    8.6790 H   0  0  0  0  0  0  0  0  0  0  0  0
   -2.5627   -0.0109    6.4648 H   0  0  0  0  0  0  0  0  0  0  0  0
    1.4855   -0.0142    6.1229 H   0  0  0  0  0  0  0  0  0  0  0  0
   -2.3103   -0.0002   -0.2431 Au  0  0  0  0  0  0  0  0  0  0  0  0
    2.5727   -2.1463    1.4530 H   0  0  0  0  0  0  0  0  0  0  0  0
    4.6372   -2.1396    0.0034 H   0  0  0  0  0  0  0  0  0  0  0  0
    4.6089    2.1579   -0.0201 H   0  0  0  0  0  0  0  0  0  0  0  0
    2.5446    2.1532    1.4299 H   0  0  0  0  0  0  0  0  0  0  0  0
    1.8315   -0.9101    9.4203 H   0  0  0  0  0  0  0  0  0  0  0  0
    2.2869   -0.0382    7.9371 H   0  0  0  0  0  0  0  0  0  0  0  0
    1.8425    0.8590    9.4082 H   0  0  0  0  0  0  0  0  0  0  0  0
   -0.6182    2.1147   10.8421 H   0  0  0  0  0  0  0  0  0  0  0  0
   -0.3330    2.1111   13.3200 H   0  0  0  0  0  0  0  0  0  0  0  0
   -0.1420    0.7743   15.1830 H   0  0  0  0  0  0  0  0  0  0  0  0
   -0.4047   -2.1968   13.3228 H   0  0  0  0  0  0  0  0  0  0  0  0
   -0.6899   -2.1832   10.8282 H   0  0  0  0  0  0  0  0  0  0  0  0
  1 33  1  0  0  0  0
  1 32  1  0  0  0  0
  2 24  1  0  0  0  0
  2  1  1  0  0  0  0
  3  2  2  0  0  0  0
  4  3  1  0  0  0  0
  4 22  2  0  0  0  0
  5 36  1  0  0  0  0
  5  4  1  0  0  0  0
  6  5  2  0  0  0  0
  7  8  2  0  0  0  0
  7  6  1  0  0  0  0
  9  7  2  0  0  0  0
 10 12  1  0  0  0  0
 10  9  2  0  0  0  0
 11 10  1  0  0  0  0
 12 13  1  0  0  0  0
 13 14  2  0  0  0  0
 13  6  1  0  0  0  0
 15 12  1  0  0  0  0
 16 38  1  0  0  0  0
 16 15  1  0  0  0  0
 17 16  2  0  0  0  0
 18 20  2  0  0  0  0
 18 17  1  0  0  0  0
 19 18  1  0  0  0  0
 20 21  1  0  0  0  0
 21 41  1  0  0  0  0
 21 15  2  0  0  0  0
 22 23  1  0  0  0  0
 22 24  1  0  0  0  0
 23 44  1  0  0  0  0
 23 42  1  0  0  0  0
 24 25  1  0  0  0  0
 25 31  2  0  0  0  0
 25 26  1  0  0  0  0
 26 27  2  0  0  0  0
 27 46  1  0  0  0  0
 27 28  1  0  0  0  0
 28 29  1  0  0  0  0
 29 47  1  0  0  0  0
 30 48  1  0  0  0  0
 30 28  2  0  0  0  0
 31 30  1  0  0  0  0
 34  1  1  0  0  0  0
 35  3  1  0  0  0  0
 37 11  1  0  0  0  0
 39 17  1  0  0  0  0
 40 20  1  0  0  0  0
 43 23  1  0  0  0  0
 45 26  1  0  0  0  0
 49 31  1  0  0  0  0
M  END
