000-730-555.xyz
 OpenBabel07262113343D
Fc1ccc(cc1)N1C(=NC(=O)/C(=C/c2ccc(o2)C)/C1=O)S
 34 36  0  0  0  0  0  0  0  0999 V2000
    4.4831    0.0008    8.1290 C   0  0  0  0  0  0  0  0  0  0  0  0
    3.0009   -0.0007    8.0630 C   0  0  0  0  0  0  0  0  0  0  0  0
    2.0148   -0.0026    9.0319 C   0  0  0  0  0  0  0  0  0  0  0  0
    0.7837   -0.0031    8.3359 C   0  0  0  0  0  0  0  0  0  0  0  0
    1.0846   -0.0016    6.9762 C   0  0  0  0  0  0  0  0  0  0  0  0
    0.1598   -0.0014    5.9020 C   0  0  0  0  0  0  0  0  0  0  0  0
    0.2233   -0.0007    4.5312 C   0  0  0  0  0  0  0  0  0  0  0  0
   -1.1074   -0.0004    3.8305 C   0  0  0  0  0  0  0  0  0  0  0  0
   -2.1572   -0.0004    4.4495 O   0  0  0  0  0  0  0  0  0  0  0  0
   -1.1075   -0.0001    2.4396 N   0  0  0  0  0  0  0  0  0  0  0  0
    0.0000   -0.0000    1.7724 C   0  0  0  0  0  0  0  0  0  0  0  0
    0.0000    0.0000    0.0000 S   0  0  0  0  0  0  0  0  0  0  0  0
    1.2647    0.0000    2.3323 N   0  0  0  0  0  0  0  0  0  0  0  0
    1.4650   -0.0007    3.7448 C   0  0  0  0  0  0  0  0  0  0  0  0
    2.5991   -0.0013    4.1722 O   0  0  0  0  0  0  0  0  0  0  0  0
    2.4386   -0.0000    1.5029 C   0  0  0  0  0  0  0  0  0  0  0  0
    3.0128   -1.2131    1.1121 C   0  0  0  0  0  0  0  0  0  0  0  0
    4.1496   -1.2186    0.3058 C   0  0  0  0  0  0  0  0  0  0  0  0
    4.6976   -0.0000   -0.0907 C   0  0  0  0  0  0  0  0  0  0  0  0
    5.7887   -0.0001   -0.8660 F   0  0  0  0  0  0  0  0  0  0  0  0
    4.1437    1.2186    0.2973 C   0  0  0  0  0  0  0  0  0  0  0  0
    3.0071    1.2132    1.1038 C   0  0  0  0  0  0  0  0  0  0  0  0
    2.4458   -0.0001    6.8390 O   0  0  0  0  0  0  0  0  0  0  0  0
    4.8942    0.8882    7.6205 H   0  0  0  0  0  0  0  0  0  0  0  0
    4.8207   -0.0000    9.1737 H   0  0  0  0  0  0  0  0  0  0  0  0
    4.8960   -0.8847    7.6185 H   0  0  0  0  0  0  0  0  0  0  0  0
    2.1739   -0.0035   10.1075 H   0  0  0  0  0  0  0  0  0  0  0  0
   -0.2201   -0.0045    8.7554 H   0  0  0  0  0  0  0  0  0  0  0  0
   -0.8768   -0.0018    6.2584 H   0  0  0  0  0  0  0  0  0  0  0  0
   -2.3080    0.0003   -0.2596 Au  0  0  0  0  0  0  0  0  0  0  0  0
    2.5598   -2.1502    1.4391 H   0  0  0  0  0  0  0  0  0  0  0  0
    4.6176   -2.1489   -0.0193 H   0  0  0  0  0  0  0  0  0  0  0  0
    4.6072    2.1488   -0.0343 H   0  0  0  0  0  0  0  0  0  0  0  0
    2.5496    2.1502    1.4244 H   0  0  0  0  0  0  0  0  0  0  0  0
  1 25  1  0  0  0  0
  2  1  1  0  0  0  0
  2  3  2  0  0  0  0
  3 27  1  0  0  0  0
  4 28  1  0  0  0  0
  4  3  1  0  0  0  0
  5  4  2  0  0  0  0
  6 29  1  0  0  0  0
  6  5  1  0  0  0  0
  7  6  2  0  0  0  0
  8  9  2  0  0  0  0
  8  7  1  0  0  0  0
 10  8  2  0  0  0  0
 11 13  1  0  0  0  0
 11 10  2  0  0  0  0
 12 11  1  0  0  0  0
 13 14  1  0  0  0  0
 14 15  2  0  0  0  0
 14  7  1  0  0  0  0
 16 13  1  0  0  0  0
 17 31  1  0  0  0  0
 17 16  1  0  0  0  0
 18 17  2  0  0  0  0
 19 21  2  0  0  0  0
 19 18  1  0  0  0  0
 20 19  1  0  0  0  0
 21 22  1  0  0  0  0
 22 34  1  0  0  0  0
 22 16  2  0  0  0  0
 23  5  1  0  0  0  0
 23  2  1  0  0  0  0
 24  1  1  0  0  0  0
 26  1  1  0  0  0  0
 30 12  1  0  0  0  0
 32 18  1  0  0  0  0
 33 21  1  0  0  0  0
M  END
