000-888-883.xyz
 OpenBabel07262113383D
Fc1cccc(c1)/C=C\1/SC(=NC1=O)S
 21 22  0  0  0  0  0  0  0  0999 V2000
    3.2583   -0.0016    9.6969 F   0  0  0  0  0  0  0  0  0  0  0  0
    2.1747   -0.0014    8.9064 C   0  0  0  0  0  0  0  0  0  0  0  0
    0.9084   -0.0017    9.4871 C   0  0  0  0  0  0  0  0  0  0  0  0
   -0.2068   -0.0015    8.6445 C   0  0  0  0  0  0  0  0  0  0  0  0
   -0.0677   -0.0010    7.2570 C   0  0  0  0  0  0  0  0  0  0  0  0
    1.2186   -0.0007    6.6744 C   0  0  0  0  0  0  0  0  0  0  0  0
    1.5134   -0.0003    5.2440 C   0  0  0  0  0  0  0  0  0  0  0  0
    0.7641   -0.0002    4.1089 C   0  0  0  0  0  0  0  0  0  0  0  0
    1.5901   -0.0000    2.5299 S   0  0  0  0  0  0  0  0  0  0  0  0
    0.0000    0.0000    1.7385 C   0  0  0  0  0  0  0  0  0  0  0  0
    0.0000    0.0000    0.0000 S   0  0  0  0  0  0  0  0  0  0  0  0
   -1.0402   -0.0001    2.5036 N   0  0  0  0  0  0  0  0  0  0  0  0
   -0.7301   -0.0001    3.8697 C   0  0  0  0  0  0  0  0  0  0  0  0
   -1.5817   -0.0001    4.7340 O   0  0  0  0  0  0  0  0  0  0  0  0
    2.3454   -0.0009    7.5300 C   0  0  0  0  0  0  0  0  0  0  0  0
    0.8151   -0.0021   10.5745 H   0  0  0  0  0  0  0  0  0  0  0  0
   -1.2080   -0.0018    9.0812 H   0  0  0  0  0  0  0  0  0  0  0  0
   -0.9409   -0.0009    6.6094 H   0  0  0  0  0  0  0  0  0  0  0  0
    2.5934   -0.0002    5.0573 H   0  0  0  0  0  0  0  0  0  0  0  0
   -2.3015   -0.0001   -0.2994 Au  0  0  0  0  0  0  0  0  0  0  0  0
    3.3599   -0.0007    7.1272 H   0  0  0  0  0  0  0  0  0  0  0  0
  2  3  1  0  0  0  0
  2  1  1  0  0  0  0
  3 16  1  0  0  0  0
  4 17  1  0  0  0  0
  4  3  2  0  0  0  0
  5  4  1  0  0  0  0
  6  5  2  0  0  0  0
  6 15  1  0  0  0  0
  7  6  1  0  0  0  0
  8  7  2  0  0  0  0
  9  8  1  0  0  0  0
 10 12  2  0  0  0  0
 10  9  1  0  0  0  0
 11 10  1  0  0  0  0
 12 13  2  0  0  0  0
 13  8  1  0  0  0  0
 13 14  2  0  0  0  0
 15  2  2  0  0  0  0
 18  5  1  0  0  0  0
 19  7  1  0  0  0  0
 20 11  1  0  0  0  0
 21 15  1  0  0  0  0
M  END
