000-759-482.xyz
 OpenBabel07262113353D
Oc1ccc(cc1)n1cccc1/C=C\1/SC(=NC1=O)S
 30 32  0  0  1  0  0  0  0  0999 V2000
   -2.7385   -5.0188    3.5475 O   0  0  0  0  0  0  0  0  0  0  0  0
   -2.2587   -4.0805    4.4013 C   0  0  0  0  0  0  0  0  0  0  0  0
   -3.0939   -3.2552    5.1671 C   0  0  0  0  0  0  0  0  0  0  0  0
   -2.5466   -2.2920    6.0111 C   0  0  0  0  0  0  0  0  0  0  0  0
   -1.1603   -2.1588    6.1201 C   0  0  0  0  0  0  0  0  0  0  0  0
   -0.3249   -3.0001    5.3769 C   0  0  0  0  0  0  0  0  0  0  0  0
   -0.8676   -3.9479    4.5136 C   0  0  0  0  0  0  0  0  0  0  0  0
   -0.6057   -1.1723    6.9842 N   0  0  0  0  0  0  0  0  0  0  0  0
   -0.9113   -1.0771    8.3170 C   0  0  0  0  0  0  0  0  0  0  0  0
   -0.0622   -0.1563    8.9138 C   0  0  0  0  0  0  0  0  0  0  0  0
    0.8124    0.3063    7.9069 C   0  0  0  0  0  0  0  0  0  0  0  0
    0.4510   -0.3087    6.7016 C   0  0  0  0  0  0  0  0  0  0  0  0
    1.0622   -0.0763    5.4180 C   0  0  0  0  0  0  0  0  0  0  0  0
    0.5192   -0.0853    4.1708 C   0  0  2  0  0  0  0  0  0  0  0  0
    1.5079   -0.0000    2.7018 S   0  0  0  0  0  0  0  0  0  0  0  0
   -0.0000   -0.0000    1.7511 C   0  0  0  0  0  0  0  0  0  0  0  0
    0.0000    0.0000    0.0000 S   0  0  0  0  0  0  0  0  0  0  0  0
   -1.1110   -0.0092    2.3918 N   0  0  0  0  0  0  0  0  0  0  0  0
   -0.9377   -0.0142    3.7904 C   0  0  0  0  0  0  0  0  0  0  0  0
   -1.8449    0.0939    4.5834 O   0  0  0  0  0  0  0  0  0  0  0  0
   -3.7039   -4.9831    3.5396 H   0  0  0  0  0  0  0  0  0  0  0  0
   -4.1804   -3.3452    5.0769 H   0  0  0  0  0  0  0  0  0  0  0  0
   -3.1963   -1.6077    6.5569 H   0  0  0  0  0  0  0  0  0  0  0  0
    0.7572   -2.9075    5.4727 H   0  0  0  0  0  0  0  0  0  0  0  0
   -0.2273   -4.6050    3.9230 H   0  0  0  0  0  0  0  0  0  0  0  0
   -1.6754   -1.7194    8.7477 H   0  0  0  0  0  0  0  0  0  0  0  0
   -0.0701    0.1317    9.9626 H   0  0  0  0  0  0  0  0  0  0  0  0
    1.6017    1.0488    8.0095 H   0  0  0  0  0  0  0  0  0  0  0  0
    2.1330    0.1482    5.4870 H   0  0  0  0  0  0  0  0  0  0  0  0
    2.2499   -0.0381   -0.5072 Au  0  0  0  0  0  0  0  0  0  0  0  0
  1  2  1  0  0  0  0
  2  7  2  0  0  0  0
  2  3  1  0  0  0  0
  3  4  2  0  0  0  0
  4  5  1  0  0  0  0
  4 23  1  0  0  0  0
  5  8  1  0  0  0  0
  6 24  1  0  0  0  0
  6  5  2  0  0  0  0
  7  6  1  0  0  0  0
  8  9  1  0  0  0  0
  9 26  1  0  0  0  0
  9 10  2  0  0  0  0
 10 27  1  0  0  0  0
 11 28  1  0  0  0  0
 11 10  1  0  0  0  0
 12  8  1  0  0  0  0
 12 11  2  0  0  0  0
 13 29  1  0  0  0  0
 13 12  1  0  0  0  0
 14 13  1  1  0  0  0
 15 14  1  0  0  0  0
 16 18  2  0  0  0  0
 16 15  1  0  0  0  0
 17 16  1  0  0  0  0
 18 19  2  0  0  0  0
 19 14  1  0  0  0  0
 19 20  2  0  0  0  0
 21  1  1  0  0  0  0
 22  3  1  0  0  0  0
 25  7  1  0  0  0  0
 30 17  1  0  0  0  0
M  RAD  2  13   2  14   2
M  END
