000-888-824.xyz
 OpenBabel07262113383D
CC(Oc1ccc(cc1)/C=C\1/SC(=NC1=O)S)C
 31 32  0  0  0  0  0  0  0  0999 V2000
   -0.1523    0.5067   13.1394 C   0  0  0  0  0  0  0  0  0  0  0  0
    0.5742   -0.0507   11.9255 C   0  0  0  0  0  0  0  0  0  0  0  0
    1.0493   -1.4861   12.1268 C   0  0  0  0  0  0  0  0  0  0  0  0
   -0.3613    0.0190   10.8404 O   0  0  0  0  0  0  0  0  0  0  0  0
    0.0463    0.0018    9.5560 C   0  0  0  0  0  0  0  0  0  0  0  0
    1.3881   -0.0050    9.1336 C   0  0  0  0  0  0  0  0  0  0  0  0
    1.6765   -0.0038    7.7733 C   0  0  0  0  0  0  0  0  0  0  0  0
    0.6667   -0.0000    6.7845 C   0  0  0  0  0  0  0  0  0  0  0  0
    1.1155   -0.0012    5.4033 C   0  0  0  0  0  0  0  0  0  0  0  0
    0.5008   -0.0004    4.1864 C   0  0  0  0  0  0  0  0  0  0  0  0
    1.4944    0.0000    2.7049 S   0  0  0  0  0  0  0  0  0  0  0  0
    0.0000    0.0000    1.7519 C   0  0  0  0  0  0  0  0  0  0  0  0
    0.0000    0.0000    0.0000 S   0  0  0  0  0  0  0  0  0  0  0  0
   -1.1148   -0.0005    2.3888 N   0  0  0  0  0  0  0  0  0  0  0  0
   -0.9540   -0.0008    3.7859 C   0  0  0  0  0  0  0  0  0  0  0  0
   -1.8942   -0.0014    4.5527 O   0  0  0  0  0  0  0  0  0  0  0  0
   -0.6782    0.0043    7.2322 C   0  0  0  0  0  0  0  0  0  0  0  0
   -0.9740    0.0047    8.5848 C   0  0  0  0  0  0  0  0  0  0  0  0
   -1.0387   -0.1056   13.3668 H   0  0  0  0  0  0  0  0  0  0  0  0
   -0.4842    1.5381   12.9510 H   0  0  0  0  0  0  0  0  0  0  0  0
    0.5101    0.5039   14.0181 H   0  0  0  0  0  0  0  0  0  0  0  0
    1.4348    0.6023   11.6948 H   0  0  0  0  0  0  0  0  0  0  0  0
    0.1927   -2.1351   12.3662 H   0  0  0  0  0  0  0  0  0  0  0  0
    1.5369   -1.8826   11.2245 H   0  0  0  0  0  0  0  0  0  0  0  0
    1.7697   -1.5385   12.9578 H   0  0  0  0  0  0  0  0  0  0  0  0
    2.2072   -0.0114    9.8511 H   0  0  0  0  0  0  0  0  0  0  0  0
    2.7243   -0.0083    7.4614 H   0  0  0  0  0  0  0  0  0  0  0  0
    2.2102   -0.0024    5.3394 H   0  0  0  0  0  0  0  0  0  0  0  0
    2.2499    0.0086   -0.5069 Au  0  0  0  0  0  0  0  0  0  0  0  0
   -1.4780    0.0069    6.4947 H   0  0  0  0  0  0  0  0  0  0  0  0
   -2.0090    0.0097    8.9312 H   0  0  0  0  0  0  0  0  0  0  0  0
  1 19  1  0  0  0  0
  1 21  1  0  0  0  0
  2  3  1  0  0  0  0
  2  1  1  0  0  0  0
  3 23  1  0  0  0  0
  3 25  1  0  0  0  0
  4  2  1  0  0  0  0
  5  4  1  0  0  0  0
  6  5  1  0  0  0  0
  6 26  1  0  0  0  0
  7  6  2  0  0  0  0
  8 17  2  0  0  0  0
  8  7  1  0  0  0  0
  9  8  1  0  0  0  0
 10  9  2  0  0  0  0
 11 10  1  0  0  0  0
 12 14  2  0  0  0  0
 12 11  1  0  0  0  0
 13 12  1  0  0  0  0
 14 15  2  0  0  0  0
 15 10  1  0  0  0  0
 15 16  2  0  0  0  0
 17 18  1  0  0  0  0
 18 31  1  0  0  0  0
 18  5  2  0  0  0  0
 20  1  1  0  0  0  0
 22  2  1  0  0  0  0
 24  3  1  0  0  0  0
 27  7  1  0  0  0  0
 28  9  1  0  0  0  0
 29 13  1  0  0  0  0
 30 17  1  0  0  0  0
M  END
