000-797-093.xyz
 OpenBabel07262113363D
O=C1N=C(S)N(C(=O)/C/1=C\c1cc(n(c1C)c1ccc2c(c1)cccn2)C)c1cccc(c1Cl)Cl
 53 57  0  0  1  0  0  0  0  0999 V2000
   -2.7685    0.7436   10.2443 C   0  0  0  0  0  0  0  0  0  0  0  0
   -2.2540    0.9129    8.8543 C   0  0  0  0  0  0  0  0  0  0  0  0
   -1.1816    0.3433    8.2223 C   0  0  0  0  0  0  0  0  0  0  0  0
   -1.1999    0.7470    6.8363 C   0  0  0  0  0  0  0  0  0  0  0  0
   -0.2005    0.3766    5.8891 C   0  0  0  0  0  0  0  0  0  0  0  0
   -0.2295    0.2383    4.5193 C   0  0  1  0  0  0  0  0  0  0  0  0
    1.0918    0.0343    3.8416 C   0  0  0  0  0  0  0  0  0  0  0  0
    2.1323   -0.0621    4.4664 O   0  0  0  0  0  0  0  0  0  0  0  0
    1.1008    0.0000    2.4454 N   0  0  0  0  0  0  0  0  0  0  0  0
   -0.0000    0.0000    1.7721 C   0  0  0  0  0  0  0  0  0  0  0  0
    0.0000    0.0000    0.0000 S   0  0  0  0  0  0  0  0  0  0  0  0
   -1.2658   -0.0083    2.3355 N   0  0  0  0  0  0  0  0  0  0  0  0
   -1.4629    0.1138    3.7426 C   0  0  0  0  0  0  0  0  0  0  0  0
   -2.6017    0.0575    4.1682 O   0  0  0  0  0  0  0  0  0  0  0  0
   -2.4396   -0.0279    1.5198 C   0  0  0  0  0  0  0  0  0  0  0  0
   -2.9660   -1.2409    1.0759 C   0  0  0  0  0  0  0  0  0  0  0  0
   -4.1101   -1.2545    0.2791 C   0  0  0  0  0  0  0  0  0  0  0  0
   -4.7361   -0.0573   -0.0659 C   0  0  0  0  0  0  0  0  0  0  0  0
   -4.2202    1.1620    0.3846 C   0  0  0  0  0  0  0  0  0  0  0  0
   -5.0227    2.6391   -0.0567 Cl  0  0  0  0  0  0  0  0  0  0  0  0
   -3.0666    1.1848    1.1826 C   0  0  0  0  0  0  0  0  0  0  0  0
   -2.3957    2.6806    1.7445 Cl  0  0  0  0  0  0  0  0  0  0  0  0
   -2.2911    1.6240    6.6832 C   0  0  0  0  0  0  0  0  0  0  0  0
   -2.6713    2.4973    5.5425 C   0  0  0  0  0  0  0  0  0  0  0  0
   -2.9149    1.7084    7.9041 N   0  0  0  0  0  0  0  0  0  0  0  0
   -4.0834    2.4779    8.1618 C   0  0  0  0  0  0  0  0  0  0  0  0
   -4.0286    3.5518    9.0904 C   0  0  0  0  0  0  0  0  0  0  0  0
   -5.1500    4.3088    9.3427 C   0  0  0  0  0  0  0  0  0  0  0  0
   -6.3745    4.0404    8.6707 C   0  0  0  0  0  0  0  0  0  0  0  0
   -7.4574    4.8174    8.9438 N   0  0  0  0  0  0  0  0  0  0  0  0
   -8.5812    4.5624    8.3119 C   0  0  0  0  0  0  0  0  0  0  0  0
   -8.7372    3.5215    7.3570 C   0  0  0  0  0  0  0  0  0  0  0  0
   -7.6553    2.7230    7.0651 C   0  0  0  0  0  0  0  0  0  0  0  0
   -6.4208    2.9636    7.7248 C   0  0  2  0  0  0  0  0  0  0  0  0
   -5.2560    2.1882    7.4938 C   0  0  0  0  0  0  0  0  0  0  0  0
   -3.8227    0.4200   10.2505 H   0  0  0  0  0  0  0  0  0  0  0  0
   -2.1735   -0.0204   10.7628 H   0  0  0  0  0  0  0  0  0  0  0  0
   -2.7141    1.6717   10.8366 H   0  0  0  0  0  0  0  0  0  0  0  0
   -0.4734   -0.3495    8.6722 H   0  0  0  0  0  0  0  0  0  0  0  0
    0.7885    0.1601    6.3112 H   0  0  0  0  0  0  0  0  0  0  0  0
    2.3085    0.0658   -0.2439 Au  0  0  0  0  0  0  0  0  0  0  0  0
   -2.4612   -2.1643    1.3612 H   0  0  0  0  0  0  0  0  0  0  0  0
   -4.5206   -2.2020   -0.0743 H   0  0  0  0  0  0  0  0  0  0  0  0
   -5.6323   -0.0491   -0.6874 H   0  0  0  0  0  0  0  0  0  0  0  0
   -3.4359    2.0259    4.9066 H   0  0  0  0  0  0  0  0  0  0  0  0
   -3.0484    3.4688    5.8945 H   0  0  0  0  0  0  0  0  0  0  0  0
   -1.7995    2.6655    4.8958 H   0  0  0  0  0  0  0  0  0  0  0  0
   -3.0812    3.7739    9.5842 H   0  0  0  0  0  0  0  0  0  0  0  0
   -5.1340    5.1405   10.0486 H   0  0  0  0  0  0  0  0  0  0  0  0
   -9.4382    5.2044    8.5508 H   0  0  0  0  0  0  0  0  0  0  0  0
   -9.7032    3.3700    6.8712 H   0  0  0  0  0  0  0  0  0  0  0  0
   -7.7275    1.9108    6.3370 H   0  0  0  0  0  0  0  0  0  0  0  0
   -5.2854    1.3582    6.7849 H   0  0  0  0  0  0  0  0  0  0  0  0
  1 36  1  0  0  0  0
  1 37  1  0  0  0  0
  1 38  1  0  0  0  0
  2  1  1  0  0  0  0
  3 39  1  0  0  0  0
  3  2  2  0  0  0  0
  4  3  1  0  0  0  0
  5 40  1  0  0  0  0
  5  4  1  0  0  0  0
  6  5  1  1  0  0  0
  7  8  2  0  0  0  0
  7  6  1  0  0  0  0
  9  7  2  0  0  0  0
 10 12  1  0  0  0  0
 10  9  2  0  0  0  0
 11 10  1  0  0  0  0
 12 13  1  0  0  0  0
 13 14  2  0  0  0  0
 13  6  1  0  0  0  0
 15 12  1  0  0  0  0
 16 42  1  0  0  0  0
 16 15  2  0  0  0  0
 17 16  1  0  0  0  0
 18 17  2  0  0  0  0
 18 19  1  0  0  0  0
 19 21  2  0  0  0  0
 20 19  1  0  0  0  0
 21 15  1  0  0  0  0
 21 22  1  0  0  0  0
 23  4  2  0  0  0  0
 23 25  1  0  0  0  0
 24 46  1  0  0  0  0
 24 23  1  0  0  0  0
 25 26  1  0  0  0  0
 25  2  1  0  0  0  0
 26 27  1  0  0  0  0
 27 28  2  0  0  0  0
 27 48  1  0  0  0  0
 28 49  1  0  0  0  0
 29 30  2  0  0  0  0
 29 28  1  0  0  0  0
 31 50  1  0  0  0  0
 31 30  2  0  0  0  0
 32 31  1  0  0  0  0
 33 32  2  0  0  0  0
 34 33  1  1  0  0  0
 34 29  1  0  0  0  0
 35 34  1  0  0  0  0
 35 26  2  0  0  0  0
 41 11  1  0  0  0  0
 43 17  1  0  0  0  0
 44 18  1  0  0  0  0
 45 24  1  0  0  0  0
 47 24  1  0  0  0  0
 51 32  1  0  0  0  0
 52 33  1  0  0  0  0
 53 35  1  0  0  0  0
M  RAD  3   5   2   6   2  34   2
M  END
