000-715-027.xyz
 OpenBabel07262113333D
O=C1N=C(S)N(C(=O)/C/1=C\NN1CCOCC1)c1ccccc1
 39 41  0  0  0  0  0  0  0  0999 V2000
    0.0000    0.0000    0.0000 S   0  0  0  0  0  0  0  0  0  0  0  0
   -0.0000   -0.0000    1.7750 C   0  0  0  0  0  0  0  0  0  0  0  0
    1.1051    0.0000    2.4445 N   0  0  0  0  0  0  0  0  0  0  0  0
    1.1040    0.0003    3.8433 C   0  0  0  0  0  0  0  0  0  0  0  0
    2.1487    0.0001    4.4737 O   0  0  0  0  0  0  0  0  0  0  0  0
   -0.2209    0.0011    4.4970 C   0  0  0  0  0  0  0  0  0  0  0  0
   -0.2682    0.0022    5.8809 C   0  0  0  0  0  0  0  0  0  0  0  0
   -1.3790    0.0033    6.6156 N   0  0  0  0  0  0  0  0  0  0  0  0
   -1.3965    0.0046    8.0107 N   0  0  0  0  0  0  0  0  0  0  0  0
   -0.8405   -1.2102    8.6064 C   0  0  0  0  0  0  0  0  0  0  0  0
   -1.0653   -1.1604   10.1147 C   0  0  0  0  0  0  0  0  0  0  0  0
   -0.5028    0.0054   10.6769 O   0  0  0  0  0  0  0  0  0  0  0  0
   -1.0616    1.1720   10.1127 C   0  0  0  0  0  0  0  0  0  0  0  0
   -0.8365    1.2185    8.6043 C   0  0  0  0  0  0  0  0  0  0  0  0
   -1.4478    0.0008    3.7319 C   0  0  0  0  0  0  0  0  0  0  0  0
   -2.5832    0.0014    4.2046 O   0  0  0  0  0  0  0  0  0  0  0  0
   -1.2738    0.0000    2.3302 N   0  0  0  0  0  0  0  0  0  0  0  0
   -2.4503    0.0005    1.5016 C   0  0  0  0  0  0  0  0  0  0  0  0
   -3.0193    1.2150    1.1101 C   0  0  0  0  0  0  0  0  0  0  0  0
   -4.1571    1.2129    0.3025 C   0  0  0  0  0  0  0  0  0  0  0  0
   -4.7239    0.0016   -0.1052 C   0  0  0  0  0  0  0  0  0  0  0  0
   -4.1545   -1.2102    0.2972 C   0  0  0  0  0  0  0  0  0  0  0  0
   -3.0168   -1.2135    1.1049 C   0  0  0  0  0  0  0  0  0  0  0  0
    2.3084    0.0004   -0.2512 Au  0  0  0  0  0  0  0  0  0  0  0  0
    0.6927    0.0024    6.4056 H   0  0  0  0  0  0  0  0  0  0  0  0
   -2.2719    0.0029    6.1108 H   0  0  0  0  0  0  0  0  0  0  0  0
    0.2469   -1.3099    8.4039 H   0  0  0  0  0  0  0  0  0  0  0  0
   -1.3526   -2.0826    8.1725 H   0  0  0  0  0  0  0  0  0  0  0  0
   -0.5837   -2.0216   10.6004 H   0  0  0  0  0  0  0  0  0  0  0  0
   -2.1540   -1.2018   10.3206 H   0  0  0  0  0  0  0  0  0  0  0  0
   -2.1502    1.2172   10.3184 H   0  0  0  0  0  0  0  0  0  0  0  0
   -0.5773    2.0325   10.5969 H   0  0  0  0  0  0  0  0  0  0  0  0
   -1.3456    2.0919    8.1688 H   0  0  0  0  0  0  0  0  0  0  0  0
    0.2513    1.3142    8.4021 H   0  0  0  0  0  0  0  0  0  0  0  0
   -2.5610    2.1499    1.4368 H   0  0  0  0  0  0  0  0  0  0  0  0
   -4.6027    2.1600   -0.0094 H   0  0  0  0  0  0  0  0  0  0  0  0
   -5.6142    0.0021   -0.7383 H   0  0  0  0  0  0  0  0  0  0  0  0
   -4.5981   -2.1569   -0.0188 H   0  0  0  0  0  0  0  0  0  0  0  0
   -2.5565   -2.1488    1.4275 H   0  0  0  0  0  0  0  0  0  0  0  0
  1  2  1  0  0  0  0
  2 17  1  0  0  0  0
  2  3  2  0  0  0  0
  3  4  2  0  0  0  0
  4  5  2  0  0  0  0
  4  6  1  0  0  0  0
  6  7  2  0  0  0  0
  7 25  1  0  0  0  0
  7  8  1  0  0  0  0
  8  9  1  0  0  0  0
  9 14  1  0  0  0  0
  9 10  1  0  0  0  0
 10 11  1  0  0  0  0
 11 30  1  0  0  0  0
 11 29  1  0  0  0  0
 11 12  1  0  0  0  0
 13 31  1  0  0  0  0
 13 32  1  0  0  0  0
 13 12  1  0  0  0  0
 14 13  1  0  0  0  0
 15 16  2  0  0  0  0
 15  6  1  0  0  0  0
 17 15  1  0  0  0  0
 18 17  1  0  0  0  0
 19 35  1  0  0  0  0
 19 18  1  0  0  0  0
 20 19  2  0  0  0  0
 21 22  2  0  0  0  0
 21 20  1  0  0  0  0
 22 23  1  0  0  0  0
 23 39  1  0  0  0  0
 23 18  2  0  0  0  0
 24  1  1  0  0  0  0
 26  8  1  0  0  0  0
 27 10  1  0  0  0  0
 28 10  1  0  0  0  0
 33 14  1  0  0  0  0
 34 14  1  0  0  0  0
 36 20  1  0  0  0  0
 37 21  1  0  0  0  0
 38 22  1  0  0  0  0
M  END
