000-438-402.xyz
 OpenBabel07262113333D
Brc1cccc(c1)C=Nn1c(S)nnc1c1ccc(cc1)C(C)(C)C
 44 46  0  0  0  0  0  0  0  0999 V2000
   -5.1671    0.0464    8.7108 C   0  0  0  0  0  0  0  0  0  0  0  0
   -3.6569   -0.1918    8.8621 C   0  0  0  0  0  0  0  0  0  0  0  0
   -3.0841    0.8980    9.7933 C   0  0  0  0  0  0  0  0  0  0  0  0
   -3.4457   -1.5803    9.5025 C   0  0  0  0  0  0  0  0  0  0  0  0
   -2.9233   -0.1407    7.5150 C   0  0  0  0  0  0  0  0  0  0  0  0
   -1.5289   -0.3363    7.4674 C   0  0  0  0  0  0  0  0  0  0  0  0
   -0.8255   -0.3016    6.2713 C   0  0  0  0  0  0  0  0  0  0  0  0
   -1.4960   -0.0702    5.0532 C   0  0  0  0  0  0  0  0  0  0  0  0
   -2.8838    0.1320    5.0859 C   0  0  0  0  0  0  0  0  0  0  0  0
   -3.5768    0.0969    6.2982 C   0  0  0  0  0  0  0  0  0  0  0  0
   -0.6947   -0.0325    3.8299 C   0  0  0  0  0  0  0  0  0  0  0  0
    0.6377   -0.0439    3.8087 N   0  0  0  0  0  0  0  0  0  0  0  0
    1.0599    0.0000    2.5297 N   0  0  0  0  0  0  0  0  0  0  0  0
   -0.0000   -0.0000    1.7370 C   0  0  0  0  0  0  0  0  0  0  0  0
    0.0000    0.0000    0.0000 S   0  0  0  0  0  0  0  0  0  0  0  0
   -1.1430   -0.0400    2.5324 N   0  0  0  0  0  0  0  0  0  0  0  0
   -2.4564    0.0483    2.0948 N   0  0  0  0  0  0  0  0  0  0  0  0
   -2.8929   -0.9244    1.3786 C   0  0  0  0  0  0  0  0  0  0  0  0
   -2.2923   -2.2160    1.0019 C   0  0  0  0  0  0  0  0  0  0  0  0
   -1.3193   -2.8902    1.7651 C   0  0  0  0  0  0  0  0  0  0  0  0
   -0.8254   -4.1179    1.3299 C   0  0  0  0  0  0  0  0  0  0  0  0
   -1.2762   -4.6929    0.1381 C   0  0  0  0  0  0  0  0  0  0  0  0
   -2.2535   -4.0290   -0.6075 C   0  0  0  0  0  0  0  0  0  0  0  0
   -2.8930   -4.8034   -2.2243 Br  0  0  0  0  0  0  0  0  0  0  0  0
   -2.7726   -2.8091   -0.1791 C   0  0  0  0  0  0  0  0  0  0  0  0
   -5.3836    1.0360    8.2801 H   0  0  0  0  0  0  0  0  0  0  0  0
   -5.6511    0.0009    9.6985 H   0  0  0  0  0  0  0  0  0  0  0  0
   -5.6395   -0.7171    8.0738 H   0  0  0  0  0  0  0  0  0  0  0  0
   -3.5967    0.8767   10.7686 H   0  0  0  0  0  0  0  0  0  0  0  0
   -3.2208    1.8990    9.3553 H   0  0  0  0  0  0  0  0  0  0  0  0
   -2.0089    0.7556    9.9766 H   0  0  0  0  0  0  0  0  0  0  0  0
   -3.9628   -1.6370   10.4740 H   0  0  0  0  0  0  0  0  0  0  0  0
   -3.8453   -2.3757    8.8542 H   0  0  0  0  0  0  0  0  0  0  0  0
   -2.3804   -1.7922    9.6769 H   0  0  0  0  0  0  0  0  0  0  0  0
   -0.9753   -0.5209    8.3903 H   0  0  0  0  0  0  0  0  0  0  0  0
    0.2549   -0.4488    6.2511 H   0  0  0  0  0  0  0  0  0  0  0  0
   -3.4243    0.3337    4.1621 H   0  0  0  0  0  0  0  0  0  0  0  0
   -4.6533    0.2628    6.2766 H   0  0  0  0  0  0  0  0  0  0  0  0
   -0.5709    2.1943   -0.4672 Au  0  0  0  0  0  0  0  0  0  0  0  0
   -3.9031   -0.7467    0.9863 H   0  0  0  0  0  0  0  0  0  0  0  0
   -0.9544   -2.4720    2.7010 H   0  0  0  0  0  0  0  0  0  0  0  0
   -0.0718   -4.6373    1.9253 H   0  0  0  0  0  0  0  0  0  0  0  0
   -0.8796   -5.6491   -0.2057 H   0  0  0  0  0  0  0  0  0  0  0  0
   -3.5385   -2.3053   -0.7709 H   0  0  0  0  0  0  0  0  0  0  0  0
  1  2  1  0  0  0  0
  1 27  1  0  0  0  0
  2  4  1  0  0  0  0
  2  3  1  0  0  0  0
  3 31  1  0  0  0  0
  3 29  1  0  0  0  0
  4 34  1  0  0  0  0
  4 32  1  0  0  0  0
  5  2  1  0  0  0  0
  6  5  1  0  0  0  0
  6 35  1  0  0  0  0
  7  6  2  0  0  0  0
  8  9  2  0  0  0  0
  8  7  1  0  0  0  0
  9 10  1  0  0  0  0
 10  5  2  0  0  0  0
 11  8  1  0  0  0  0
 12 11  2  0  0  0  0
 13 12  1  0  0  0  0
 14 13  2  0  0  0  0
 14 16  1  0  0  0  0
 15 14  1  0  0  0  0
 16 11  1  0  0  0  0
 17 16  1  0  0  0  0
 18 17  2  0  0  0  0
 19 18  1  0  0  0  0
 19 20  2  0  0  0  0
 20 41  1  0  0  0  0
 21 20  1  0  0  0  0
 21 42  1  0  0  0  0
 22 21  2  0  0  0  0
 23 25  2  0  0  0  0
 23 22  1  0  0  0  0
 24 23  1  0  0  0  0
 25 19  1  0  0  0  0
 26  1  1  0  0  0  0
 28  1  1  0  0  0  0
 30  3  1  0  0  0  0
 33  4  1  0  0  0  0
 36  7  1  0  0  0  0
 37  9  1  0  0  0  0
 38 10  1  0  0  0  0
 39 15  1  0  0  0  0
 40 18  1  0  0  0  0
 43 22  1  0  0  0  0
 44 25  1  0  0  0  0
M  END
