000-697-229.xyz
 OpenBabel07262113333D
SC1=NC(=O)/C(=C/c2cc3ccccc3nc2N2CCOCC2)/S1
 39 42  0  0  1  0  0  0  0  0999 V2000
    0.0000    0.0000    0.0000 S   0  0  0  0  0  0  0  0  0  0  0  0
    0.0000   -0.0000    1.7371 C   0  0  0  0  0  0  0  0  0  0  0  0
   -1.0372    0.0115    2.5030 N   0  0  0  0  0  0  0  0  0  0  0  0
   -0.6996   -0.0040    3.8673 C   0  0  0  0  0  0  0  0  0  0  0  0
   -1.5021   -0.0000    4.7721 O   0  0  0  0  0  0  0  0  0  0  0  0
    0.7996   -0.0372    4.0742 C   0  0  0  0  0  0  0  0  0  0  0  0
    1.6220    0.0000    2.5128 S   0  0  0  0  0  0  0  0  0  0  0  0
    1.3212   -0.1736    5.3143 C   0  0  0  0  0  0  0  0  0  0  0  0
    2.7029   -0.3547    5.7350 C   0  0  0  0  0  0  0  0  0  0  0  0
    2.9612   -1.2090    6.7968 C   0  0  0  0  0  0  0  0  0  0  0  0
    4.2731   -1.6610    7.0685 C   0  0  1  0  0  0  0  0  0  0  0  0
    4.5875   -2.5770    8.1077 C   0  0  0  0  0  0  0  0  0  0  0  0
    5.8767   -3.0414    8.2622 C   0  0  0  0  0  0  0  0  0  0  0  0
    6.8979   -2.6074    7.3787 C   0  0  0  0  0  0  0  0  0  0  0  0
    6.6241   -1.7134    6.3637 C   0  0  0  0  0  0  0  0  0  0  0  0
    5.3089   -1.2062    6.1870 C   0  0  0  0  0  0  0  0  0  0  0  0
    5.0728   -0.2769    5.2290 N   0  0  0  0  0  0  0  0  0  0  0  0
    3.8554    0.1889    5.0405 C   0  0  0  0  0  0  0  0  0  0  0  0
    3.6815    1.2298    4.1416 N   0  0  0  0  0  0  0  0  0  0  0  0
    2.8299    2.3733    4.5031 C   0  0  0  0  0  0  0  0  0  0  0  0
    3.6262    3.6805    4.3548 C   0  0  0  0  0  0  0  0  0  0  0  0
    4.9430    3.5092    4.8138 O   0  0  0  0  0  0  0  0  0  0  0  0
    5.7025    2.6354    3.9900 C   0  0  0  0  0  0  0  0  0  0  0  0
    4.8076    1.5978    3.2934 C   0  0  0  0  0  0  0  0  0  0  0  0
   -2.3004    0.0222   -0.3050 Au  0  0  0  0  0  0  0  0  0  0  0  0
    0.5534   -0.2681    6.0919 H   0  0  0  0  0  0  0  0  0  0  0  0
    2.1257   -1.6080    7.3791 H   0  0  0  0  0  0  0  0  0  0  0  0
    3.7892   -2.9128    8.7749 H   0  0  0  0  0  0  0  0  0  0  0  0
    6.1154   -3.7471    9.0608 H   0  0  0  0  0  0  0  0  0  0  0  0
    7.9150   -2.9854    7.5085 H   0  0  0  0  0  0  0  0  0  0  0  0
    7.4007   -1.3619    5.6824 H   0  0  0  0  0  0  0  0  0  0  0  0
    1.9171    2.4151    3.8827 H   0  0  0  0  0  0  0  0  0  0  0  0
    2.5154    2.2572    5.5491 H   0  0  0  0  0  0  0  0  0  0  0  0
    3.6074    4.0360    3.3049 H   0  0  0  0  0  0  0  0  0  0  0  0
    3.1593    4.4648    4.9689 H   0  0  0  0  0  0  0  0  0  0  0  0
    6.2680    3.2108    3.2288 H   0  0  0  0  0  0  0  0  0  0  0  0
    6.4188    2.1271    4.6505 H   0  0  0  0  0  0  0  0  0  0  0  0
    5.3885    0.6995    3.0572 H   0  0  0  0  0  0  0  0  0  0  0  0
    4.3956    1.9966    2.3525 H   0  0  0  0  0  0  0  0  0  0  0  0
  1  2  1  0  0  0  0
  2  3  2  0  0  0  0
  2  7  1  0  0  0  0
  3  4  2  0  0  0  0
  4  6  1  0  0  0  0
  4  5  2  0  0  0  0
  6  8  2  0  0  0  0
  7  6  1  0  0  0  0
  8  9  1  0  0  0  0
  8 26  1  0  0  0  0
  9 10  2  0  0  0  0
 10 11  1  0  0  0  0
 10 27  1  0  0  0  0
 11 16  1  6  0  0  0
 11 12  1  0  0  0  0
 12 13  2  0  0  0  0
 12 28  1  0  0  0  0
 13 29  1  0  0  0  0
 14 30  1  0  0  0  0
 14 13  1  0  0  0  0
 15 14  2  0  0  0  0
 16 15  1  0  0  0  0
 17 16  2  0  0  0  0
 18 17  2  0  0  0  0
 18  9  1  0  0  0  0
 19 20  1  0  0  0  0
 19 18  1  0  0  0  0
 20 33  1  0  0  0  0
 21 20  1  0  0  0  0
 21 22  1  0  0  0  0
 21 35  1  0  0  0  0
 23 37  1  0  0  0  0
 23 22  1  0  0  0  0
 24 23  1  0  0  0  0
 24 19  1  0  0  0  0
 25  1  1  0  0  0  0
 31 15  1  0  0  0  0
 32 20  1  0  0  0  0
 34 21  1  0  0  0  0
 36 23  1  0  0  0  0
 38 24  1  0  0  0  0
 39 24  1  0  0  0  0
M  RAD  1  11   2
M  END
