000-732-306.xyz
 OpenBabel07262113343D
O=C1N=C(S)N(C(=O)/C/1=C\c1cn(c2c1cccc2)C)c1ccccc1Cl
 41 44  0  0  0  0  0  0  0  0999 V2000
    4.4213    0.2135    8.5960 C   0  0  0  0  0  0  0  0  0  0  0  0
    3.0250    0.1657    8.2201 N   0  0  0  0  0  0  0  0  0  0  0  0
    2.5451    0.1308    6.9512 C   0  0  0  0  0  0  0  0  0  0  0  0
    1.1418    0.0917    6.9628 C   0  0  0  0  0  0  0  0  0  0  0  0
    0.1895    0.0531    5.9096 C   0  0  0  0  0  0  0  0  0  0  0  0
    0.2353    0.0297    4.5307 C   0  0  0  0  0  0  0  0  0  0  0  0
   -1.0949    0.0018    3.8397 C   0  0  0  0  0  0  0  0  0  0  0  0
   -2.1456   -0.0105    4.4570 O   0  0  0  0  0  0  0  0  0  0  0  0
   -1.1011   -0.0072    2.4443 N   0  0  0  0  0  0  0  0  0  0  0  0
   -0.0000   -0.0000    1.7724 C   0  0  0  0  0  0  0  0  0  0  0  0
    0.0000    0.0000    0.0000 S   0  0  0  0  0  0  0  0  0  0  0  0
    1.2670   -0.0000    2.3339 N   0  0  0  0  0  0  0  0  0  0  0  0
    1.4601    0.0348    3.7407 C   0  0  0  0  0  0  0  0  0  0  0  0
    2.6071    0.0614    4.1593 O   0  0  0  0  0  0  0  0  0  0  0  0
    2.4344    0.0864    1.5103 C   0  0  0  0  0  0  0  0  0  0  0  0
    3.0650   -1.0737    1.0554 C   0  0  0  0  0  0  0  0  0  0  0  0
    4.1984   -0.9886    0.2476 C   0  0  0  0  0  0  0  0  0  0  0  0
    4.7085    0.2653   -0.1009 C   0  0  0  0  0  0  0  0  0  0  0  0
    4.0928    1.4325    0.3554 C   0  0  0  0  0  0  0  0  0  0  0  0
    2.9585    1.3416    1.1633 C   0  0  0  0  0  0  0  0  0  0  0  0
    2.1777    2.7872    1.7342 Cl  0  0  0  0  0  0  0  0  0  0  0  0
    0.7633    0.1047    8.3741 C   0  0  0  0  0  0  0  0  0  0  0  0
   -0.4625    0.0819    9.0546 C   0  0  0  0  0  0  0  0  0  0  0  0
   -0.4575    0.1053   10.4487 C   0  0  0  0  0  0  0  0  0  0  0  0
    0.7487    0.1510   11.1751 C   0  0  0  0  0  0  0  0  0  0  0  0
    1.9811    0.1745   10.5225 C   0  0  0  0  0  0  0  0  0  0  0  0
    1.9638    0.1508    9.1252 C   0  0  0  0  0  0  0  0  0  0  0  0
    4.6357    1.1242    9.1777 H   0  0  0  0  0  0  0  0  0  0  0  0
    4.6892   -0.6630    9.2073 H   0  0  0  0  0  0  0  0  0  0  0  0
    5.0390    0.2171    7.6893 H   0  0  0  0  0  0  0  0  0  0  0  0
    3.1959    0.1356    6.0825 H   0  0  0  0  0  0  0  0  0  0  0  0
   -0.8496    0.0402    6.2582 H   0  0  0  0  0  0  0  0  0  0  0  0
   -2.3087    0.0512   -0.2439 Au  0  0  0  0  0  0  0  0  0  0  0  0
    2.6451   -2.0393    1.3410 H   0  0  0  0  0  0  0  0  0  0  0  0
    4.6829   -1.8994   -0.1093 H   0  0  0  0  0  0  0  0  0  0  0  0
    5.5952    0.3399   -0.7344 H   0  0  0  0  0  0  0  0  0  0  0  0
    4.4817    2.4165    0.0910 H   0  0  0  0  0  0  0  0  0  0  0  0
   -1.4058    0.0465    8.5052 H   0  0  0  0  0  0  0  0  0  0  0  0
   -1.4060    0.0881   10.9901 H   0  0  0  0  0  0  0  0  0  0  0  0
    0.7187    0.1684   12.2669 H   0  0  0  0  0  0  0  0  0  0  0  0
    2.9163    0.2100   11.0842 H   0  0  0  0  0  0  0  0  0  0  0  0
  1 28  1  0  0  0  0
  1 29  1  0  0  0  0
  2  1  1  0  0  0  0
  2 27  1  0  0  0  0
  3  4  2  0  0  0  0
  3  2  1  0  0  0  0
  4 22  1  0  0  0  0
  5 32  1  0  0  0  0
  5  4  1  0  0  0  0
  6  5  2  0  0  0  0
  7  8  2  0  0  0  0
  7  6  1  0  0  0  0
  9  7  2  0  0  0  0
 10 12  1  0  0  0  0
 10  9  2  0  0  0  0
 11 10  1  0  0  0  0
 12 13  1  0  0  0  0
 13 14  2  0  0  0  0
 13  6  1  0  0  0  0
 15 12  1  0  0  0  0
 16 34  1  0  0  0  0
 16 15  2  0  0  0  0
 17 16  1  0  0  0  0
 18 17  2  0  0  0  0
 18 19  1  0  0  0  0
 19 20  2  0  0  0  0
 20 15  1  0  0  0  0
 20 21  1  0  0  0  0
 22 23  2  0  0  0  0
 22 27  1  0  0  0  0
 23 24  1  0  0  0  0
 24 39  1  0  0  0  0
 24 25  2  0  0  0  0
 25 40  1  0  0  0  0
 26 41  1  0  0  0  0
 26 25  1  0  0  0  0
 27 26  2  0  0  0  0
 30  1  1  0  0  0  0
 31  3  1  0  0  0  0
 33 11  1  0  0  0  0
 35 17  1  0  0  0  0
 36 18  1  0  0  0  0
 37 19  1  0  0  0  0
 38 23  1  0  0  0  0
M  END
