000-888-874.xyz
 OpenBabel07262113383D
SC1=NC(=O)/C(=C\c2ccccc2F)/S1
 21 22  0  0  0  0  0  0  0  0999 V2000
   -0.4523   -1.9931    6.0925 F   0  0  0  0  0  0  0  0  0  0  0  0
   -0.0473   -1.0924    6.9895 C   0  0  0  0  0  0  0  0  0  0  0  0
   -0.5415   -1.1856    8.2864 C   0  0  0  0  0  0  0  0  0  0  0  0
   -0.0826   -0.2987    9.2614 C   0  0  0  0  0  0  0  0  0  0  0  0
    0.8820    0.6610    8.9367 C   0  0  0  0  0  0  0  0  0  0  0  0
    1.3720    0.7341    7.6346 C   0  0  0  0  0  0  0  0  0  0  0  0
    0.8975   -0.1196    6.6194 C   0  0  0  0  0  0  0  0  0  0  0  0
    1.4532   -0.0129    5.2659 C   0  0  0  0  0  0  0  0  0  0  0  0
    0.7888   -0.0498    4.0902 C   0  0  0  0  0  0  0  0  0  0  0  0
    1.6084   -0.0000    2.5199 S   0  0  0  0  0  0  0  0  0  0  0  0
    0.0000    0.0000    1.7385 C   0  0  0  0  0  0  0  0  0  0  0  0
    0.0000    0.0000    0.0000 S   0  0  0  0  0  0  0  0  0  0  0  0
   -1.0354   -0.0069    2.5058 N   0  0  0  0  0  0  0  0  0  0  0  0
   -0.7126   -0.0115    3.8738 C   0  0  0  0  0  0  0  0  0  0  0  0
   -1.5288    0.0556    4.7609 O   0  0  0  0  0  0  0  0  0  0  0  0
   -1.2769   -1.9600    8.5102 H   0  0  0  0  0  0  0  0  0  0  0  0
   -0.4720   -0.3664   10.2797 H   0  0  0  0  0  0  0  0  0  0  0  0
    1.2532    1.3490    9.6988 H   0  0  0  0  0  0  0  0  0  0  0  0
    2.1270    1.4810    7.3766 H   0  0  0  0  0  0  0  0  0  0  0  0
    2.5384    0.1373    5.2260 H   0  0  0  0  0  0  0  0  0  0  0  0
   -2.3013   -0.0106   -0.2986 Au  0  0  0  0  0  0  0  0  0  0  0  0
  1  2  1  0  0  0  0
  2  3  1  0  0  0  0
  3 16  1  0  0  0  0
  3  4  2  0  0  0  0
  4 17  1  0  0  0  0
  5  4  1  0  0  0  0
  5 18  1  0  0  0  0
  6  5  2  0  0  0  0
  7  2  2  0  0  0  0
  7  6  1  0  0  0  0
  8  7  1  0  0  0  0
  9  8  2  0  0  0  0
 10  9  1  0  0  0  0
 11 13  2  0  0  0  0
 11 10  1  0  0  0  0
 12 11  1  0  0  0  0
 13 14  2  0  0  0  0
 14  9  1  0  0  0  0
 14 15  2  0  0  0  0
 19  6  1  0  0  0  0
 20  8  1  0  0  0  0
 21 12  1  0  0  0  0
M  END
