000-733-116.xyz
 OpenBabel07262113343D
OCCN1C(=O)NC2C1NC(=N2)S
 23 24  0  0  1  0  0  0  0  0999 V2000
    4.2853    2.9758    5.5289 O   0  0  0  0  0  0  0  0  0  0  0  0
    3.0724    2.2586    5.5300 C   0  0  0  0  0  0  0  0  0  0  0  0
    2.2866    2.4682    4.2305 C   0  0  0  0  0  0  0  0  0  0  0  0
    1.0692    1.6980    4.1576 N   0  0  0  0  0  0  0  0  0  0  0  0
    0.9993    0.3004    3.8004 C   0  0  2  0  0  0  0  0  0  0  0  0
    1.2383   -0.0000    2.3939 N   0  0  0  0  0  0  0  0  0  0  0  0
   -0.0000    0.0000    1.7623 C   0  0  0  0  0  0  0  0  0  0  0  0
    0.0000    0.0000    0.0000 S   0  0  0  0  0  0  0  0  0  0  0  0
   -1.0307   -0.0392    2.5304 N   0  0  0  0  0  0  0  0  0  0  0  0
   -0.5369    0.0029    3.9073 C   0  0  2  0  0  0  0  0  0  0  0  0
   -1.0226    1.1224    4.6783 N   0  0  0  0  0  0  0  0  0  0  0  0
   -0.1302    2.1823    4.6666 C   0  0  0  0  0  0  0  0  0  0  0  0
   -0.3283    3.3139    5.0553 O   0  0  0  0  0  0  0  0  0  0  0  0
    4.0760    3.9185    5.5658 H   0  0  0  0  0  0  0  0  0  0  0  0
    2.4218    2.5240    6.3859 H   0  0  0  0  0  0  0  0  0  0  0  0
    3.3379    1.1942    5.6416 H   0  0  0  0  0  0  0  0  0  0  0  0
    2.0026    3.5293    4.1450 H   0  0  0  0  0  0  0  0  0  0  0  0
    2.9357    2.2307    3.3707 H   0  0  0  0  0  0  0  0  0  0  0  0
    1.6423   -0.3256    4.4405 H   0  0  0  0  0  0  0  0  0  0  0  0
    2.0469    0.3915    1.9229 H   0  0  0  0  0  0  0  0  0  0  0  0
   -2.2931    0.0399   -0.2955 Au  0  0  0  0  0  0  0  0  0  0  0  0
   -0.7578   -0.9537    4.4089 H   0  0  0  0  0  0  0  0  0  0  0  0
   -2.0123    1.3400    4.6864 H   0  0  0  0  0  0  0  0  0  0  0  0
  1  2  1  0  0  0  0
  1 14  1  0  0  0  0
  2 16  1  0  0  0  0
  2 15  1  0  0  0  0
  3  2  1  0  0  0  0
  4  3  1  0  0  0  0
  4 12  1  0  0  0  0
  5 10  1  1  0  0  0
  5  4  1  0  0  0  0
  5 19  1  0  0  0  0
  6  5  1  0  0  0  0
  7  6  1  0  0  0  0
  7  9  2  0  0  0  0
  8  7  1  0  0  0  0
  9 10  1  0  0  0  0
 10 22  1  1  0  0  0
 10 11  1  0  0  0  0
 11 23  1  0  0  0  0
 12 11  1  0  0  0  0
 12 13  2  0  0  0  0
 17  3  1  0  0  0  0
 18  3  1  0  0  0  0
 20  6  1  0  0  0  0
 21  8  1  0  0  0  0
M  END
