000-760-539.xyz
 OpenBabel07262113353D
CCn1cc(c2c1cccc2)/C=C/1\C(=O)N=C(N(C1=O)c1ccc(cc1)Cl)S
 44 47  0  0  0  0  0  0  0  0999 V2000
    3.9710   -1.4521    9.3930 C   0  0  0  0  0  0  0  0  0  0  0  0
    3.5509   -0.0397    8.9923 C   0  0  0  0  0  0  0  0  0  0  0  0
    2.1863    0.0211    8.4894 N   0  0  0  0  0  0  0  0  0  0  0  0
    1.8376    0.0130    7.1795 C   0  0  0  0  0  0  0  0  0  0  0  0
    0.4393    0.0028    7.0475 C   0  0  0  0  0  0  0  0  0  0  0  0
   -0.3979    0.0012    5.9018 C   0  0  0  0  0  0  0  0  0  0  0  0
   -0.1978    0.0015    4.5343 C   0  0  0  0  0  0  0  0  0  0  0  0
    1.1079    0.0005    3.8405 C   0  0  0  0  0  0  0  0  0  0  0  0
    2.1824   -0.0006    4.4291 O   0  0  0  0  0  0  0  0  0  0  0  0
    1.1032    0.0000    2.4456 N   0  0  0  0  0  0  0  0  0  0  0  0
    0.0000   -0.0000    1.7735 C   0  0  0  0  0  0  0  0  0  0  0  0
    0.0000    0.0000    0.0000 S   0  0  0  0  0  0  0  0  0  0  0  0
   -1.2637   -0.0002    2.3339 N   0  0  0  0  0  0  0  0  0  0  0  0
   -1.4443   -0.0001    3.7415 C   0  0  0  0  0  0  0  0  0  0  0  0
   -2.5750   -0.0010    4.1904 O   0  0  0  0  0  0  0  0  0  0  0  0
   -2.4419    0.0001    1.5109 C   0  0  0  0  0  0  0  0  0  0  0  0
   -3.0154   -1.2118    1.1183 C   0  0  0  0  0  0  0  0  0  0  0  0
   -4.1552   -1.2166    0.3166 C   0  0  0  0  0  0  0  0  0  0  0  0
   -4.7160    0.0010   -0.0804 C   0  0  0  0  0  0  0  0  0  0  0  0
   -6.1417    0.0015   -1.0866 Cl  0  0  0  0  0  0  0  0  0  0  0  0
   -4.1544    1.2181    0.3168 C   0  0  0  0  0  0  0  0  0  0  0  0
   -3.0146    1.2124    1.1184 C   0  0  0  0  0  0  0  0  0  0  0  0
   -0.0813   -0.0010    8.4132 C   0  0  0  0  0  0  0  0  0  0  0  0
   -1.3711   -0.0052    8.9636 C   0  0  0  0  0  0  0  0  0  0  0  0
   -1.5110   -0.0048   10.3506 C   0  0  0  0  0  0  0  0  0  0  0  0
   -0.3855    0.0011   11.1975 C   0  0  0  0  0  0  0  0  0  0  0  0
    0.9078    0.0061   10.6755 C   0  0  0  0  0  0  0  0  0  0  0  0
    1.0373    0.0060    9.2835 C   0  0  0  0  0  0  0  0  0  0  0  0
    3.3165   -1.8537   10.1811 H   0  0  0  0  0  0  0  0  0  0  0  0
    5.0045   -1.4482    9.7723 H   0  0  0  0  0  0  0  0  0  0  0  0
    3.9217   -2.1315    8.5286 H   0  0  0  0  0  0  0  0  0  0  0  0
    4.2079    0.3519    8.2023 H   0  0  0  0  0  0  0  0  0  0  0  0
    3.6293    0.6498    9.8479 H   0  0  0  0  0  0  0  0  0  0  0  0
    2.5679    0.0174    6.3758 H   0  0  0  0  0  0  0  0  0  0  0  0
   -1.4653   -0.0020    6.1491 H   0  0  0  0  0  0  0  0  0  0  0  0
    2.3077    0.0003   -0.2569 Au  0  0  0  0  0  0  0  0  0  0  0  0
   -2.5607   -2.1498    1.4402 H   0  0  0  0  0  0  0  0  0  0  0  0
   -4.6121   -2.1542   -0.0014 H   0  0  0  0  0  0  0  0  0  0  0  0
   -4.6106    2.1562   -0.0011 H   0  0  0  0  0  0  0  0  0  0  0  0
   -2.5592    2.1501    1.4405 H   0  0  0  0  0  0  0  0  0  0  0  0
   -2.2533   -0.0087    8.3195 H   0  0  0  0  0  0  0  0  0  0  0  0
   -2.5106   -0.0094   10.7909 H   0  0  0  0  0  0  0  0  0  0  0  0
   -0.5268    0.0010   12.2806 H   0  0  0  0  0  0  0  0  0  0  0  0
    1.7786    0.0092   11.3333 H   0  0  0  0  0  0  0  0  0  0  0  0
  1 30  1  0  0  0  0
  1 29  1  0  0  0  0
  2  1  1  0  0  0  0
  2 33  1  0  0  0  0
  3  2  1  0  0  0  0
  3 28  1  0  0  0  0
  4  3  1  0  0  0  0
  5  4  2  0  0  0  0
  5 23  1  0  0  0  0
  6 35  1  0  0  0  0
  6  5  1  0  0  0  0
  7  6  2  0  0  0  0
  8  9  2  0  0  0  0
  8  7  1  0  0  0  0
 10  8  2  0  0  0  0
 11 13  1  0  0  0  0
 11 10  2  0  0  0  0
 12 11  1  0  0  0  0
 13 14  1  0  0  0  0
 14 15  2  0  0  0  0
 14  7  1  0  0  0  0
 16 13  1  0  0  0  0
 17 37  1  0  0  0  0
 17 16  2  0  0  0  0
 18 17  1  0  0  0  0
 19 18  2  0  0  0  0
 19 21  1  0  0  0  0
 20 19  1  0  0  0  0
 21 22  2  0  0  0  0
 22 40  1  0  0  0  0
 22 16  1  0  0  0  0
 23 24  2  0  0  0  0
 23 28  1  0  0  0  0
 24 25  1  0  0  0  0
 25 42  1  0  0  0  0
 25 26  2  0  0  0  0
 26 43  1  0  0  0  0
 27 26  1  0  0  0  0
 27 44  1  0  0  0  0
 28 27  2  0  0  0  0
 31  1  1  0  0  0  0
 32  2  1  0  0  0  0
 34  4  1  0  0  0  0
 36 12  1  0  0  0  0
 38 18  1  0  0  0  0
 39 21  1  0  0  0  0
 41 24  1  0  0  0  0
M  END
