000-759-350.xyz
 OpenBabel07262113353D
Fc1ccc(cc1)N1C(=NC(=O)/C(=C/c2cc(n(c2C)c2ccc(cn2)C)C)/C1=O)S
 50 53  0  0  1  0  0  0  0  0999 V2000
    4.2942    0.0380    8.9390 C   0  0  0  0  0  0  0  0  0  0  0  0
    2.9242   -0.0112    8.3484 C   0  0  0  0  0  0  0  0  0  0  0  0
    2.5380   -0.0033    7.0385 C   0  0  0  0  0  0  0  0  0  0  0  0
    1.0932    0.0097    6.9910 C   0  0  0  0  0  0  0  0  0  0  0  0
    0.1629    0.0103    5.9139 C   0  0  0  0  0  0  0  0  0  0  0  0
    0.2286    0.0047    4.5362 C   0  0  0  0  0  0  0  0  0  0  0  0
   -1.0997    0.0007    3.8379 C   0  0  0  0  0  0  0  0  0  0  0  0
   -2.1544   -0.0020    4.4507 O   0  0  0  0  0  0  0  0  0  0  0  0
   -1.1046    0.0001    2.4431 N   0  0  0  0  0  0  0  0  0  0  0  0
   -0.0000    0.0000    1.7750 C   0  0  0  0  0  0  0  0  0  0  0  0
    0.0000    0.0000    0.0000 S   0  0  0  0  0  0  0  0  0  0  0  0
    1.2643    0.0000    2.3355 N   0  0  0  0  0  0  0  0  0  0  0  0
    1.4596    0.0031    3.7474 C   0  0  0  0  0  0  0  0  0  0  0  0
    2.6048    0.0046    4.1618 O   0  0  0  0  0  0  0  0  0  0  0  0
    2.4383   -0.0006    1.5070 C   0  0  0  0  0  0  0  0  0  0  0  0
    3.0132    1.2120    1.1155 C   0  0  0  0  0  0  0  0  0  0  0  0
    4.1496    1.2169    0.3086 C   0  0  0  0  0  0  0  0  0  0  0  0
    4.6966   -0.0019   -0.0882 C   0  0  0  0  0  0  0  0  0  0  0  0
    5.7877   -0.0025   -0.8646 F   0  0  0  0  0  0  0  0  0  0  0  0
    4.1422   -1.2201    0.3001 C   0  0  0  0  0  0  0  0  0  0  0  0
    3.0060   -1.2139    1.1072 C   0  0  0  0  0  0  0  0  0  0  0  0
    0.6455    0.0199    8.3332 C   0  0  0  0  0  0  0  0  0  0  0  0
   -0.7357    0.0264    8.8932 C   0  0  0  0  0  0  0  0  0  0  0  0
    1.7540   -0.0009    9.1362 N   0  0  0  0  0  0  0  0  0  0  0  0
    1.7305    0.0240   10.5579 C   0  0  0  0  0  0  0  0  0  0  0  0
    2.3838   -0.9766   11.2905 C   0  0  0  0  0  0  0  0  0  0  0  0
    2.3537   -0.8991   12.6796 C   0  0  0  0  0  0  0  0  0  0  0  0
    1.6652    0.1488   13.3089 C   0  0  2  0  0  0  0  0  0  0  0  0
    1.6073    0.2751   14.8066 C   0  0  0  0  0  0  0  0  0  0  0  0
    1.0281    1.0713   12.4660 C   0  0  0  0  0  0  0  0  0  0  0  0
    1.0654    1.0192   11.1342 N   0  0  0  0  0  0  0  0  0  0  0  0
    5.0187    0.2384    8.1381 H   0  0  0  0  0  0  0  0  0  0  0  0
    4.5914   -0.9057    9.4260 H   0  0  0  0  0  0  0  0  0  0  0  0
    4.3885    0.8368    9.6931 H   0  0  0  0  0  0  0  0  0  0  0  0
    3.1853    0.0089    6.1702 H   0  0  0  0  0  0  0  0  0  0  0  0
   -0.8847    0.0166    6.2317 H   0  0  0  0  0  0  0  0  0  0  0  0
   -2.3094    0.0028   -0.2480 Au  0  0  0  0  0  0  0  0  0  0  0  0
    2.5608    2.1490    1.4433 H   0  0  0  0  0  0  0  0  0  0  0  0
    4.6180    2.1469   -0.0167 H   0  0  0  0  0  0  0  0  0  0  0  0
    4.6050   -2.1506   -0.0319 H   0  0  0  0  0  0  0  0  0  0  0  0
    2.5478   -2.1505    1.4283 H   0  0  0  0  0  0  0  0  0  0  0  0
   -0.9499    0.9782    9.4023 H   0  0  0  0  0  0  0  0  0  0  0  0
   -1.4795   -0.1277    8.1026 H   0  0  0  0  0  0  0  0  0  0  0  0
   -0.8630   -0.7719    9.6427 H   0  0  0  0  0  0  0  0  0  0  0  0
    2.8846   -1.7977   10.7779 H   0  0  0  0  0  0  0  0  0  0  0  0
    2.8551   -1.6639   13.2790 H   0  0  0  0  0  0  0  0  0  0  0  0
    0.9665    1.1141   15.1137 H   0  0  0  0  0  0  0  0  0  0  0  0
    2.6110    0.4448   15.2300 H   0  0  0  0  0  0  0  0  0  0  0  0
    1.2110   -0.6431   15.2694 H   0  0  0  0  0  0  0  0  0  0  0  0
    0.4607    1.9021   12.9018 H   0  0  0  0  0  0  0  0  0  0  0  0
  1 33  1  0  0  0  0
  1 34  1  0  0  0  0
  2  1  1  0  0  0  0
  2 24  1  0  0  0  0
  3  2  2  0  0  0  0
  4  3  1  0  0  0  0
  4 22  2  0  0  0  0
  5 36  1  0  0  0  0
  5  4  1  0  0  0  0
  6  5  2  0  0  0  0
  7  8  2  0  0  0  0
  7  6  1  0  0  0  0
  9  7  2  0  0  0  0
 10 12  1  0  0  0  0
 10  9  2  0  0  0  0
 11 10  1  0  0  0  0
 12 13  1  0  0  0  0
 13 14  2  0  0  0  0
 13  6  1  0  0  0  0
 15 12  1  0  0  0  0
 16 38  1  0  0  0  0
 16 15  1  0  0  0  0
 17 16  2  0  0  0  0
 18 20  2  0  0  0  0
 18 17  1  0  0  0  0
 19 18  1  0  0  0  0
 20 21  1  0  0  0  0
 21 41  1  0  0  0  0
 21 15  2  0  0  0  0
 22 23  1  0  0  0  0
 22 24  1  0  0  0  0
 23 42  1  0  0  0  0
 23 44  1  0  0  0  0
 24 25  1  0  0  0  0
 25 31  2  0  0  0  0
 25 26  1  0  0  0  0
 26 27  2  0  0  0  0
 27 46  1  0  0  0  0
 27 28  1  0  0  0  0
 28 29  1  1  0  0  0
 29 47  1  0  0  0  0
 29 48  1  0  0  0  0
 29 49  1  0  0  0  0
 30 50  1  0  0  0  0
 30 28  1  0  0  0  0
 31 30  2  0  0  0  0
 32  1  1  0  0  0  0
 35  3  1  0  0  0  0
 37 11  1  0  0  0  0
 39 17  1  0  0  0  0
 40 20  1  0  0  0  0
 43 23  1  0  0  0  0
 45 26  1  0  0  0  0
M  RAD  1  28   2
M  END
