000-711-490.xyz
 OpenBabel07262113333D
Cc1ccc(cc1)N1C(=NC(=O)/C(=C/c2ccc(o2)c2cc(Cl)ccc2Cl)/C1=O)S
 44 47  0  0  0  0  0  0  0  0999 V2000
   -6.1535    0.4392   -0.6744 C   0  0  0  0  0  0  0  0  0  0  0  0
   -4.8542    0.3322    0.0809 C   0  0  0  0  0  0  0  0  0  0  0  0
   -4.4555   -0.8961    0.6348 C   0  0  0  0  0  0  0  0  0  0  0  0
   -3.2685   -1.0082    1.3511 C   0  0  0  0  0  0  0  0  0  0  0  0
   -2.4579    0.1163    1.5314 C   0  0  0  0  0  0  0  0  0  0  0  0
   -2.8374    1.3476    0.9964 C   0  0  0  0  0  0  0  0  0  0  0  0
   -4.0235    1.4458    0.2674 C   0  0  0  0  0  0  0  0  0  0  0  0
   -1.2658    0.0033    2.3304 N   0  0  0  0  0  0  0  0  0  0  0  0
   -0.0000    0.0000    1.7696 C   0  0  0  0  0  0  0  0  0  0  0  0
    0.0000    0.0000    0.0000 S   0  0  0  0  0  0  0  0  0  0  0  0
    1.1071    0.0000    2.4411 N   0  0  0  0  0  0  0  0  0  0  0  0
    1.1080   -0.0700    3.8306 C   0  0  0  0  0  0  0  0  0  0  0  0
    2.1418    0.0161    4.4670 O   0  0  0  0  0  0  0  0  0  0  0  0
   -0.2131   -0.3311    4.4968 C   0  0  0  0  0  0  0  0  0  0  0  0
   -0.1670   -0.7794    5.7905 C   0  0  0  0  0  0  0  0  0  0  0  0
   -1.1760   -1.3148    6.6383 C   0  0  0  0  0  0  0  0  0  0  0  0
   -1.1366   -1.6937    7.9765 C   0  0  0  0  0  0  0  0  0  0  0  0
   -2.4178   -2.2017    8.3002 C   0  0  0  0  0  0  0  0  0  0  0  0
   -3.1749   -2.1200    7.1372 C   0  0  0  0  0  0  0  0  0  0  0  0
   -2.4113   -1.5965    6.1551 O   0  0  0  0  0  0  0  0  0  0  0  0
   -4.5463   -2.4076    6.7277 C   0  0  0  0  0  0  0  0  0  0  0  0
   -4.9802   -1.8562    5.4988 C   0  0  0  0  0  0  0  0  0  0  0  0
   -6.2576   -2.1172    5.0186 C   0  0  0  0  0  0  0  0  0  0  0  0
   -6.7532   -1.4357    3.4879 Cl  0  0  0  0  0  0  0  0  0  0  0  0
   -7.1526   -2.9120    5.7423 C   0  0  0  0  0  0  0  0  0  0  0  0
   -6.7436   -3.4491    6.9607 C   0  0  0  0  0  0  0  0  0  0  0  0
   -5.4580   -3.2059    7.4509 C   0  0  0  0  0  0  0  0  0  0  0  0
   -5.0282   -3.9504    8.9723 Cl  0  0  0  0  0  0  0  0  0  0  0  0
   -1.4500   -0.0770    3.7353 C   0  0  0  0  0  0  0  0  0  0  0  0
   -2.5614    0.0896    4.1930 O   0  0  0  0  0  0  0  0  0  0  0  0
   -6.1934   -0.2840   -1.5051 H   0  0  0  0  0  0  0  0  0  0  0  0
   -7.0096    0.2199   -0.0145 H   0  0  0  0  0  0  0  0  0  0  0  0
   -6.2988    1.4458   -1.0920 H   0  0  0  0  0  0  0  0  0  0  0  0
   -5.0932   -1.7751    0.5133 H   0  0  0  0  0  0  0  0  0  0  0  0
   -2.9683   -1.9616    1.7891 H   0  0  0  0  0  0  0  0  0  0  0  0
   -2.2050    2.2227    1.1545 H   0  0  0  0  0  0  0  0  0  0  0  0
   -4.3155    2.4114   -0.1526 H   0  0  0  0  0  0  0  0  0  0  0  0
    2.3064   -0.0568   -0.2647 Au  0  0  0  0  0  0  0  0  0  0  0  0
    0.8377   -0.7761    6.2258 H   0  0  0  0  0  0  0  0  0  0  0  0
   -0.2776   -1.6019    8.6377 H   0  0  0  0  0  0  0  0  0  0  0  0
   -2.7560   -2.5694    9.2619 H   0  0  0  0  0  0  0  0  0  0  0  0
   -4.3033   -1.2125    4.9356 H   0  0  0  0  0  0  0  0  0  0  0  0
   -8.1546   -3.1039    5.3570 H   0  0  0  0  0  0  0  0  0  0  0  0
   -7.4218   -4.0733    7.5437 H   0  0  0  0  0  0  0  0  0  0  0  0
  1 32  1  0  0  0  0
  1  2  1  0  0  0  0
  2  7  2  0  0  0  0
  2  3  1  0  0  0  0
  3  4  2  0  0  0  0
  4  5  1  0  0  0  0
  4 35  1  0  0  0  0
  5  8  1  0  0  0  0
  6 36  1  0  0  0  0
  6  5  2  0  0  0  0
  7  6  1  0  0  0  0
  8 29  1  0  0  0  0
  9  8  1  0  0  0  0
  9 11  2  0  0  0  0
 10  9  1  0  0  0  0
 11 12  2  0  0  0  0
 12 13  2  0  0  0  0
 12 14  1  0  0  0  0
 14 15  2  0  0  0  0
 15 39  1  0  0  0  0
 15 16  1  0  0  0  0
 16 17  2  0  0  0  0
 17 18  1  0  0  0  0
 17 40  1  0  0  0  0
 18 41  1  0  0  0  0
 19 18  2  0  0  0  0
 20 16  1  0  0  0  0
 20 19  1  0  0  0  0
 21 19  1  0  0  0  0
 21 27  2  0  0  0  0
 22 21  1  0  0  0  0
 23 22  2  0  0  0  0
 23 25  1  0  0  0  0
 24 23  1  0  0  0  0
 25 26  2  0  0  0  0
 26 27  1  0  0  0  0
 26 44  1  0  0  0  0
 27 28  1  0  0  0  0
 29 30  2  0  0  0  0
 29 14  1  0  0  0  0
 31  1  1  0  0  0  0
 33  1  1  0  0  0  0
 34  3  1  0  0  0  0
 37  7  1  0  0  0  0
 38 10  1  0  0  0  0
 42 22  1  0  0  0  0
 43 25  1  0  0  0  0
M  END
