000-438-594.xyz
 OpenBabel07262113333D
Sc1nnc(n1N=Cc1c(O)ccc2c1cccc2)c1ccccc1
 39 42  0  0  0  0  0  0  0  0999 V2000
    0.0000    0.0000    0.0000 S   0  0  0  0  0  0  0  0  0  0  0  0
   -0.0000   -0.0000    1.7560 C   0  0  0  0  0  0  0  0  0  0  0  0
    1.0668   -0.0000    2.5315 N   0  0  0  0  0  0  0  0  0  0  0  0
    0.6627    0.0858    3.8285 N   0  0  0  0  0  0  0  0  0  0  0  0
   -0.6504    0.1407    3.8630 C   0  0  0  0  0  0  0  0  0  0  0  0
   -1.1314    0.0823    2.5563 N   0  0  0  0  0  0  0  0  0  0  0  0
   -2.4403    0.2721    2.2088 N   0  0  0  0  0  0  0  0  0  0  0  0
   -2.8893   -0.2843    1.1269 C   0  0  0  0  0  0  0  0  0  0  0  0
   -4.2476   -0.0953    0.6821 C   0  0  0  0  0  0  0  0  0  0  0  0
   -5.1442    0.6672    1.4642 C   0  0  0  0  0  0  0  0  0  0  0  0
   -4.7903    1.2516    2.6048 O   0  0  0  0  0  0  0  0  0  0  0  0
   -6.4953    0.8275    1.0527 C   0  0  0  0  0  0  0  0  0  0  0  0
   -6.9403    0.2476   -0.1059 C   0  0  0  0  0  0  0  0  0  0  0  0
   -6.0747   -0.5181   -0.9415 C   0  0  0  0  0  0  0  0  0  0  0  0
   -4.7061   -0.6894   -0.5551 C   0  0  0  0  0  0  0  0  0  0  0  0
   -3.8653   -1.4345   -1.4245 C   0  0  0  0  0  0  0  0  0  0  0  0
   -4.3536   -1.9886   -2.5932 C   0  0  0  0  0  0  0  0  0  0  0  0
   -5.7071   -1.8274   -2.9618 C   0  0  0  0  0  0  0  0  0  0  0  0
   -6.5479   -1.0996   -2.1455 C   0  0  0  0  0  0  0  0  0  0  0  0
   -1.4477    0.2418    5.0900 C   0  0  0  0  0  0  0  0  0  0  0  0
   -0.7988    0.7244    6.2439 C   0  0  0  0  0  0  0  0  0  0  0  0
   -1.4859    0.8256    7.4505 C   0  0  0  0  0  0  0  0  0  0  0  0
   -2.8315    0.4494    7.5304 C   0  0  0  0  0  0  0  0  0  0  0  0
   -3.4794   -0.0388    6.3940 C   0  0  0  0  0  0  0  0  0  0  0  0
   -2.7955   -0.1490    5.1815 C   0  0  0  0  0  0  0  0  0  0  0  0
    2.2877    0.3689   -0.2022 Au  0  0  0  0  0  0  0  0  0  0  0  0
   -2.2350   -0.9359    0.5379 H   0  0  0  0  0  0  0  0  0  0  0  0
   -3.8194    1.0954    2.7550 H   0  0  0  0  0  0  0  0  0  0  0  0
   -7.1503    1.4198    1.6934 H   0  0  0  0  0  0  0  0  0  0  0  0
   -7.9823    0.3721   -0.4117 H   0  0  0  0  0  0  0  0  0  0  0  0
   -2.8094   -1.5708   -1.1902 H   0  0  0  0  0  0  0  0  0  0  0  0
   -3.6795   -2.5545   -3.2405 H   0  0  0  0  0  0  0  0  0  0  0  0
   -6.0796   -2.2710   -3.8875 H   0  0  0  0  0  0  0  0  0  0  0  0
   -7.5971   -0.9559   -2.4162 H   0  0  0  0  0  0  0  0  0  0  0  0
    0.2501    1.0131    6.1677 H   0  0  0  0  0  0  0  0  0  0  0  0
   -0.9699    1.2050    8.3357 H   0  0  0  0  0  0  0  0  0  0  0  0
   -3.3713    0.5350    8.4764 H   0  0  0  0  0  0  0  0  0  0  0  0
   -4.5274   -0.3423    6.4470 H   0  0  0  0  0  0  0  0  0  0  0  0
   -3.3156   -0.5444    4.3117 H   0  0  0  0  0  0  0  0  0  0  0  0
  1  2  1  0  0  0  0
  2  3  2  0  0  0  0
  2  6  1  0  0  0  0
  3  4  1  0  0  0  0
  4  5  2  0  0  0  0
  5 20  1  0  0  0  0
  6  5  1  0  0  0  0
  7  6  1  0  0  0  0
  8  7  2  0  0  0  0
  9  8  1  0  0  0  0
  9 10  2  0  0  0  0
 10 11  1  0  0  0  0
 11 28  1  0  0  0  0
 12 10  1  0  0  0  0
 12 29  1  0  0  0  0
 13 12  2  0  0  0  0
 14 15  1  0  0  0  0
 14 13  1  0  0  0  0
 15  9  1  0  0  0  0
 16 31  1  0  0  0  0
 16 15  2  0  0  0  0
 17 16  1  0  0  0  0
 18 17  2  0  0  0  0
 18 19  1  0  0  0  0
 19 14  2  0  0  0  0
 20 25  2  0  0  0  0
 20 21  1  0  0  0  0
 21 22  2  0  0  0  0
 22 23  1  0  0  0  0
 22 36  1  0  0  0  0
 23 37  1  0  0  0  0
 24 38  1  0  0  0  0
 24 23  2  0  0  0  0
 25 24  1  0  0  0  0
 26  1  1  0  0  0  0
 27  8  1  0  0  0  0
 30 13  1  0  0  0  0
 32 17  1  0  0  0  0
 33 18  1  0  0  0  0
 34 19  1  0  0  0  0
 35 21  1  0  0  0  0
 39 25  1  0  0  0  0
M  END
