000-790-719.xyz
 OpenBabel07262113363D
SC1=NC(=O)/C(=C\NNC(=O)c2ccccc2)/C(=N1)O
 30 31  0  0  0  0  0  0  0  0999 V2000
    2.6106   -0.0036    4.0956 O   0  0  0  0  0  0  0  0  0  0  0  0
    1.3849   -0.0026    3.5624 C   0  0  0  0  0  0  0  0  0  0  0  0
    1.2728    0.0000    2.2592 N   0  0  0  0  0  0  0  0  0  0  0  0
    0.0000   -0.0000    1.7653 C   0  0  0  0  0  0  0  0  0  0  0  0
    0.0000    0.0000    0.0000 S   0  0  0  0  0  0  0  0  0  0  0  0
   -1.1274    0.0017    2.4382 N   0  0  0  0  0  0  0  0  0  0  0  0
   -1.0743    0.0105    3.8094 C   0  0  0  0  0  0  0  0  0  0  0  0
   -2.1088    0.0232    4.5009 O   0  0  0  0  0  0  0  0  0  0  0  0
    0.2604   -0.0008    4.4389 C   0  0  0  0  0  0  0  0  0  0  0  0
    0.3999   -0.0522    5.8230 C   0  0  0  0  0  0  0  0  0  0  0  0
   -0.6664   -0.0260    6.6160 N   0  0  0  0  0  0  0  0  0  0  0  0
   -0.5841   -0.2838    7.9597 N   0  0  0  0  0  0  0  0  0  0  0  0
   -0.0408   -1.4628    8.4465 C   0  0  0  0  0  0  0  0  0  0  0  0
    0.5292   -2.2529    7.7208 O   0  0  0  0  0  0  0  0  0  0  0  0
   -0.1749   -1.6532    9.9261 C   0  0  0  0  0  0  0  0  0  0  0  0
   -1.1781   -1.0428   10.6954 C   0  0  0  0  0  0  0  0  0  0  0  0
   -1.2507   -1.2784   12.0695 C   0  0  0  0  0  0  0  0  0  0  0  0
   -0.3241   -2.1256   12.6835 C   0  0  0  0  0  0  0  0  0  0  0  0
    0.6686   -2.7479   11.9191 C   0  0  0  0  0  0  0  0  0  0  0  0
    0.7389   -2.5186   10.5459 C   0  0  0  0  0  0  0  0  0  0  0  0
    3.2327   -0.0182    3.3479 H   0  0  0  0  0  0  0  0  0  0  0  0
   -2.2814   -0.0093   -0.3593 Au  0  0  0  0  0  0  0  0  0  0  0  0
    1.3846   -0.1196    6.2898 H   0  0  0  0  0  0  0  0  0  0  0  0
   -1.5755   -0.0545    6.0834 H   0  0  0  0  0  0  0  0  0  0  0  0
   -0.9517    0.4281    8.5787 H   0  0  0  0  0  0  0  0  0  0  0  0
   -1.9331   -0.4082   10.2254 H   0  0  0  0  0  0  0  0  0  0  0  0
   -2.0394   -0.8074   12.6603 H   0  0  0  0  0  0  0  0  0  0  0  0
   -0.3813   -2.3082   13.7592 H   0  0  0  0  0  0  0  0  0  0  0  0
    1.3878   -3.4171   12.3966 H   0  0  0  0  0  0  0  0  0  0  0  0
    1.4962   -3.0026    9.9269 H   0  0  0  0  0  0  0  0  0  0  0  0
  2  1  1  0  0  0  0
  2  9  1  0  0  0  0
  3  2  2  0  0  0  0
  4  3  2  0  0  0  0
  4  6  2  0  0  0  0
  5  4  1  0  0  0  0
  6  7  2  0  0  0  0
  7  9  1  0  0  0  0
  7  8  2  0  0  0  0
  9 10  2  0  0  0  0
 10 23  1  0  0  0  0
 10 11  1  0  0  0  0
 11 12  1  0  0  0  0
 12 13  1  0  0  0  0
 12 25  1  0  0  0  0
 13 15  1  0  0  0  0
 14 13  2  0  0  0  0
 15 20  2  0  0  0  0
 15 16  1  0  0  0  0
 16 17  2  0  0  0  0
 17 27  1  0  0  0  0
 17 18  1  0  0  0  0
 18 28  1  0  0  0  0
 19 29  1  0  0  0  0
 19 18  2  0  0  0  0
 20 19  1  0  0  0  0
 21  1  1  0  0  0  0
 22  5  1  0  0  0  0
 24 11  1  0  0  0  0
 26 16  1  0  0  0  0
 30 20  1  0  0  0  0
M  END
