000-833-675.xyz
 OpenBabel07262113373D
Oc1nc(S)n(c(=O)c1C1NCCc2c1cccc2)c1cccc(c1)C(F)(F)F
 45 48  0  0  1  0  0  0  0  0999 V2000
    2.1760    0.0014    4.4808 O   0  0  0  0  0  0  0  0  0  0  0  0
    1.0022    0.0147    3.8258 C   0  0  0  0  0  0  0  0  0  0  0  0
    1.1028    0.0000    2.4707 N   0  0  0  0  0  0  0  0  0  0  0  0
   -0.0000   -0.0000    1.7720 C   0  0  0  0  0  0  0  0  0  0  0  0
    0.0000    0.0000    0.0000 S   0  0  0  0  0  0  0  0  0  0  0  0
   -1.2350    0.0127    2.3539 N   0  0  0  0  0  0  0  0  0  0  0  0
   -2.4282   -0.0016    1.5537 C   0  0  0  0  0  0  0  0  0  0  0  0
   -3.1447    1.1804    1.3546 C   0  0  0  0  0  0  0  0  0  0  0  0
   -4.3053    1.1582    0.5819 C   0  0  0  0  0  0  0  0  0  0  0  0
   -4.7466   -0.0372    0.0112 C   0  0  0  0  0  0  0  0  0  0  0  0
   -4.0256   -1.2173    0.2212 C   0  0  0  0  0  0  0  0  0  0  0  0
   -2.8692   -1.2058    1.0035 C   0  0  0  0  0  0  0  0  0  0  0  0
   -4.4709   -2.4981   -0.4379 C   0  0  0  0  0  0  0  0  0  0  0  0
   -4.0656   -3.5802    0.2468 F   0  0  0  0  0  0  0  0  0  0  0  0
   -3.9685   -2.6082   -1.6829 F   0  0  0  0  0  0  0  0  0  0  0  0
   -5.8085   -2.5612   -0.5487 F   0  0  0  0  0  0  0  0  0  0  0  0
   -1.4109    0.0703    3.7906 C   0  0  0  0  0  0  0  0  0  0  0  0
   -2.5414    0.1522    4.2347 O   0  0  0  0  0  0  0  0  0  0  0  0
   -0.1777    0.0399    4.5331 C   0  0  2  0  0  0  0  0  0  0  0  0
   -0.2342    0.0807    6.0429 C   0  0  1  0  0  0  0  0  0  0  0  0
    0.4061   -1.1049    6.6143 N   0  0  0  0  0  0  0  0  0  0  0  0
    0.5985   -0.9856    8.0511 C   0  0  0  0  0  0  0  0  0  0  0  0
    1.5324    0.1727    8.4157 C   0  0  0  0  0  0  0  0  0  0  0  0
    1.1112    1.4550    7.7313 C   0  0  0  0  0  0  0  0  0  0  0  0
    1.5399    2.6984    8.2211 C   0  0  0  0  0  0  0  0  0  0  0  0
    1.1564    3.8900    7.6080 C   0  0  0  0  0  0  0  0  0  0  0  0
    0.3198    3.8503    6.4878 C   0  0  0  0  0  0  0  0  0  0  0  0
   -0.1115    2.6203    5.9937 C   0  0  0  0  0  0  0  0  0  0  0  0
    0.2847    1.4165    6.5939 C   0  0  0  0  0  0  0  0  0  0  0  0
    2.8750    0.0107    3.8080 H   0  0  0  0  0  0  0  0  0  0  0  0
    2.2757    0.0637   -0.3958 Au  0  0  0  0  0  0  0  0  0  0  0  0
   -2.7894    2.1051    1.8109 H   0  0  0  0  0  0  0  0  0  0  0  0
   -4.8728    2.0778    0.4267 H   0  0  0  0  0  0  0  0  0  0  0  0
   -5.6567   -0.0592   -0.5902 H   0  0  0  0  0  0  0  0  0  0  0  0
   -2.3117   -2.1242    1.1869 H   0  0  0  0  0  0  0  0  0  0  0  0
   -1.3071    0.0301    6.2971 H   0  0  0  0  0  0  0  0  0  0  0  0
    1.3136   -1.2358    6.1696 H   0  0  0  0  0  0  0  0  0  0  0  0
    0.9895   -1.9379    8.4448 H   0  0  0  0  0  0  0  0  0  0  0  0
   -0.3891   -0.8293    8.5199 H   0  0  0  0  0  0  0  0  0  0  0  0
    2.5618   -0.0875    8.1039 H   0  0  0  0  0  0  0  0  0  0  0  0
    1.5723    0.3245    9.5079 H   0  0  0  0  0  0  0  0  0  0  0  0
    2.1841    2.7242    9.1052 H   0  0  0  0  0  0  0  0  0  0  0  0
    1.5008    4.8475    8.0065 H   0  0  0  0  0  0  0  0  0  0  0  0
    0.0025    4.7771    6.0032 H   0  0  0  0  0  0  0  0  0  0  0  0
   -0.7738    2.5878    5.1251 H   0  0  0  0  0  0  0  0  0  0  0  0
  2  1  1  0  0  0  0
  2 19  1  0  0  0  0
  3  2  2  0  0  0  0
  4  6  1  0  0  0  0
  4  3  2  0  0  0  0
  5  4  1  0  0  0  0
  6 17  1  0  0  0  0
  7  6  1  0  0  0  0
  8  7  1  0  0  0  0
  8 32  1  0  0  0  0
  9  8  2  0  0  0  0
 10 11  2  0  0  0  0
 10  9  1  0  0  0  0
 11 12  1  0  0  0  0
 12 35  1  0  0  0  0
 12  7  2  0  0  0  0
 13 11  1  0  0  0  0
 13 14  1  0  0  0  0
 15 13  1  0  0  0  0
 16 13  1  0  0  0  0
 17 18  2  0  0  0  0
 19 17  1  6  0  0  0
 19 20  1  0  0  0  0
 20 36  1  1  0  0  0
 20 29  1  0  0  0  0
 20 21  1  0  0  0  0
 21 22  1  0  0  0  0
 22 23  1  0  0  0  0
 22 38  1  0  0  0  0
 22 39  1  0  0  0  0
 23 41  1  0  0  0  0
 24 25  1  0  0  0  0
 24 23  1  0  0  0  0
 25 42  1  0  0  0  0
 26 43  1  0  0  0  0
 26 25  2  0  0  0  0
 27 26  1  0  0  0  0
 28 27  2  0  0  0  0
 28 29  1  0  0  0  0
 29 24  2  0  0  0  0
 30  1  1  0  0  0  0
 31  5  1  0  0  0  0
 33  9  1  0  0  0  0
 34 10  1  0  0  0  0
 37 21  1  0  0  0  0
 40 23  1  0  0  0  0
 44 27  1  0  0  0  0
 45 28  1  0  0  0  0
M  RAD  1  19   2
M  END
