000-833-975.xyz
 OpenBabel07262113373D
SC1=NC(=O)/C(=C\c2ccc(o2)c2ccc(cc2Br)C)/C(=N1)O
 34 36  0  0  0  0  0  0  0  0999 V2000
    8.7634    2.9660    6.9867 C   0  0  0  0  0  0  0  0  0  0  0  0
    7.2616    2.8618    6.9600 C   0  0  0  0  0  0  0  0  0  0  0  0
    6.5149    2.9135    8.1498 C   0  0  0  0  0  0  0  0  0  0  0  0
    5.1341    2.7929    8.1216 C   0  0  0  0  0  0  0  0  0  0  0  0
    4.4201    2.6208    6.9138 C   0  0  0  0  0  0  0  0  0  0  0  0
    2.9692    2.5125    7.0031 C   0  0  0  0  0  0  0  0  0  0  0  0
    2.0807    3.0077    7.9528 C   0  0  0  0  0  0  0  0  0  0  0  0
    0.7968    2.5905    7.5478 C   0  0  0  0  0  0  0  0  0  0  0  0
    0.9632    1.8505    6.3783 C   0  0  0  0  0  0  0  0  0  0  0  0
   -0.0371    1.2623    5.5582 C   0  0  0  0  0  0  0  0  0  0  0  0
    0.0204    0.5438    4.3915 C   0  0  0  0  0  0  0  0  0  0  0  0
   -1.2131    0.2195    3.6706 C   0  0  0  0  0  0  0  0  0  0  0  0
   -2.3941    0.1921    4.3077 O   0  0  0  0  0  0  0  0  0  0  0  0
   -1.2294   -0.0316    2.4024 N   0  0  0  0  0  0  0  0  0  0  0  0
    0.0000    0.0000    1.7645 C   0  0  0  0  0  0  0  0  0  0  0  0
    0.0000    0.0000    0.0000 S   0  0  0  0  0  0  0  0  0  0  0  0
    1.1746    0.0000    2.3104 N   0  0  0  0  0  0  0  0  0  0  0  0
    1.2712    0.0756    3.6944 C   0  0  0  0  0  0  0  0  0  0  0  0
    2.2799   -0.2201    4.3005 O   0  0  0  0  0  0  0  0  0  0  0  0
    2.2875    1.8186    6.0729 O   0  0  0  0  0  0  0  0  0  0  0  0
    5.1743    2.5866    5.7192 C   0  0  0  0  0  0  0  0  0  0  0  0
    4.3824    2.4431    3.9997 Br  0  0  0  0  0  0  0  0  0  0  0  0
    6.5689    2.7004    5.7567 C   0  0  0  0  0  0  0  0  0  0  0  0
    9.0903    3.8510    7.5560 H   0  0  0  0  0  0  0  0  0  0  0  0
    9.1833    3.0350    5.9733 H   0  0  0  0  0  0  0  0  0  0  0  0
    9.2087    2.0841    7.4772 H   0  0  0  0  0  0  0  0  0  0  0  0
    7.0267    3.0357    9.1075 H   0  0  0  0  0  0  0  0  0  0  0  0
    4.5762    2.8022    9.0596 H   0  0  0  0  0  0  0  0  0  0  0  0
    2.3354    3.6209    8.8127 H   0  0  0  0  0  0  0  0  0  0  0  0
   -0.1533    2.8078    8.0319 H   0  0  0  0  0  0  0  0  0  0  0  0
   -1.0330    1.5239    5.9343 H   0  0  0  0  0  0  0  0  0  0  0  0
   -2.2476    0.1687    5.2631 H   0  0  0  0  0  0  0  0  0  0  0  0
   -2.2558   -0.0411   -0.4706 Au  0  0  0  0  0  0  0  0  0  0  0  0
    7.1188    2.6699    4.8147 H   0  0  0  0  0  0  0  0  0  0  0  0
  1 26  1  0  0  0  0
  1 24  1  0  0  0  0
  2  1  1  0  0  0  0
  2  3  2  0  0  0  0
  3 27  1  0  0  0  0
  4  3  1  0  0  0  0
  4 28  1  0  0  0  0
  5  6  1  0  0  0  0
  5  4  2  0  0  0  0
  6  7  2  0  0  0  0
  7 29  1  0  0  0  0
  8  7  1  0  0  0  0
  8 30  1  0  0  0  0
  9  8  2  0  0  0  0
 10 31  1  0  0  0  0
 10  9  1  0  0  0  0
 11 10  2  0  0  0  0
 12 13  1  0  0  0  0
 12 11  1  0  0  0  0
 13 32  1  0  0  0  0
 14 12  2  0  0  0  0
 15 17  2  0  0  0  0
 15 14  2  0  0  0  0
 16 15  1  0  0  0  0
 17 18  2  0  0  0  0
 18 19  2  0  0  0  0
 18 11  1  0  0  0  0
 20  9  1  0  0  0  0
 20  6  1  0  0  0  0
 21 23  2  0  0  0  0
 21  5  1  0  0  0  0
 22 21  1  0  0  0  0
 23  2  1  0  0  0  0
 25  1  1  0  0  0  0
 33 16  1  0  0  0  0
 34 23  1  0  0  0  0
M  END
