000-704-373.xyz
 OpenBabel07262113333D
SC1=NC(=O)/C(=C/c2cc3ccccc3nc2O)/S1
 27 29  0  0  1  0  0  0  0  0999 V2000
    2.1274    1.0540    7.8735 O   0  0  0  0  0  0  0  0  0  0  0  0
    3.0794    0.5465    7.0652 C   0  0  0  0  0  0  0  0  0  0  0  0
    4.2867    0.5359    7.5537 N   0  0  0  0  0  0  0  0  0  0  0  0
    5.3129    0.0692    6.7967 C   0  0  0  0  0  0  0  0  0  0  0  0
    6.6249    0.0519    7.3382 C   0  0  0  0  0  0  0  0  0  0  0  0
    7.6854   -0.4095    6.5848 C   0  0  0  0  0  0  0  0  0  0  0  0
    7.4890   -0.8762    5.2598 C   0  0  0  0  0  0  0  0  0  0  0  0
    6.2261   -0.8751    4.7072 C   0  0  0  0  0  0  0  0  0  0  0  0
    5.1148   -0.4048    5.4581 C   0  0  1  0  0  0  0  0  0  0  0  0
    3.7925   -0.3944    4.9604 C   0  0  0  0  0  0  0  0  0  0  0  0
    2.7393    0.0624    5.7396 C   0  0  0  0  0  0  0  0  0  0  0  0
    1.3517    0.0433    5.3117 C   0  0  0  0  0  0  0  0  0  0  0  0
    0.8177    0.0003    4.0706 C   0  0  0  0  0  0  0  0  0  0  0  0
    1.6266    0.0000    2.5083 S   0  0  0  0  0  0  0  0  0  0  0  0
   -0.0000    0.0000    1.7345 C   0  0  0  0  0  0  0  0  0  0  0  0
    0.0000    0.0000    0.0000 S   0  0  0  0  0  0  0  0  0  0  0  0
   -1.0277   -0.0045    2.5103 N   0  0  0  0  0  0  0  0  0  0  0  0
   -0.6849   -0.0086    3.8721 C   0  0  0  0  0  0  0  0  0  0  0  0
   -1.4785   -0.0075    4.7838 O   0  0  0  0  0  0  0  0  0  0  0  0
    1.2956    1.1560    7.3932 H   0  0  0  0  0  0  0  0  0  0  0  0
    6.7557    0.4155    8.3586 H   0  0  0  0  0  0  0  0  0  0  0  0
    8.6913   -0.4171    7.0117 H   0  0  0  0  0  0  0  0  0  0  0  0
    8.3421   -1.2370    4.6811 H   0  0  0  0  0  0  0  0  0  0  0  0
    6.0612   -1.2345    3.6880 H   0  0  0  0  0  0  0  0  0  0  0  0
    3.6059   -0.7950    3.9619 H   0  0  0  0  0  0  0  0  0  0  0  0
    0.5720    0.0533    6.0844 H   0  0  0  0  0  0  0  0  0  0  0  0
   -2.2984   -0.0138   -0.3155 Au  0  0  0  0  0  0  0  0  0  0  0  0
  2  3  2  0  0  0  0
  2  1  1  0  0  0  0
  4  5  1  0  0  0  0
  4  3  2  0  0  0  0
  5 21  1  0  0  0  0
  6 22  1  0  0  0  0
  6  5  2  0  0  0  0
  7  6  1  0  0  0  0
  8  7  2  0  0  0  0
  9  8  1  1  0  0  0
  9  4  1  0  0  0  0
 10  9  1  0  0  0  0
 10 11  2  0  0  0  0
 11  2  1  0  0  0  0
 12 11  1  0  0  0  0
 12 26  1  0  0  0  0
 13 12  2  0  0  0  0
 14 13  1  0  0  0  0
 15 14  1  0  0  0  0
 15 17  2  0  0  0  0
 16 15  1  0  0  0  0
 17 18  2  0  0  0  0
 18 13  1  0  0  0  0
 18 19  2  0  0  0  0
 20  1  1  0  0  0  0
 23  7  1  0  0  0  0
 24  8  1  0  0  0  0
 25 10  1  0  0  0  0
 27 16  1  0  0  0  0
M  RAD  1   9   2
M  END
