000-888-879.xyz
 OpenBabel07262113383D
Clc1cccc(c1)/C=C\1/SC(=NC1=O)S
 21 22  0  0  0  0  0  0  0  0999 V2000
    0.0000    0.0000    0.0000 S   0  0  0  0  0  0  0  0  0  0  0  0
   -0.0000   -0.0000    1.7482 C   0  0  0  0  0  0  0  0  0  0  0  0
   -1.1134    0.0004    2.3885 N   0  0  0  0  0  0  0  0  0  0  0  0
   -0.9511    0.0005    3.7821 C   0  0  0  0  0  0  0  0  0  0  0  0
   -1.8854    0.0005    4.5533 O   0  0  0  0  0  0  0  0  0  0  0  0
    0.5119    0.0007    4.1828 C   0  0  0  0  0  0  0  0  0  0  0  0
    1.4994   -0.0000    2.6998 S   0  0  0  0  0  0  0  0  0  0  0  0
    1.1291    0.0017    5.3946 C   0  0  0  0  0  0  0  0  0  0  0  0
    0.6780    0.0025    6.7841 C   0  0  0  0  0  0  0  0  0  0  0  0
   -0.6633    0.0011    7.2245 C   0  0  0  0  0  0  0  0  0  0  0  0
   -0.9498    0.0018    8.5886 C   0  0  0  0  0  0  0  0  0  0  0  0
    0.0677    0.0040    9.5460 C   0  0  0  0  0  0  0  0  0  0  0  0
    1.3967    0.0056    9.1131 C   0  0  0  0  0  0  0  0  0  0  0  0
    2.6902    0.0085   10.2893 Cl  0  0  0  0  0  0  0  0  0  0  0  0
    1.7051    0.0047    7.7568 C   0  0  0  0  0  0  0  0  0  0  0  0
    2.2493   -0.0058   -0.5118 Au  0  0  0  0  0  0  0  0  0  0  0  0
    2.2231    0.0021    5.3304 H   0  0  0  0  0  0  0  0  0  0  0  0
   -1.4625   -0.0005    6.4875 H   0  0  0  0  0  0  0  0  0  0  0  0
   -1.9919    0.0006    8.9161 H   0  0  0  0  0  0  0  0  0  0  0  0
   -0.1564    0.0046   10.6135 H   0  0  0  0  0  0  0  0  0  0  0  0
    2.7523    0.0059    7.4500 H   0  0  0  0  0  0  0  0  0  0  0  0
  1  2  1  0  0  0  0
  2  3  2  0  0  0  0
  2  7  1  0  0  0  0
  3  4  2  0  0  0  0
  4  6  1  0  0  0  0
  4  5  2  0  0  0  0
  6  8  2  0  0  0  0
  7  6  1  0  0  0  0
  8  9  1  0  0  0  0
  9 10  2  0  0  0  0
  9 15  1  0  0  0  0
 10 11  1  0  0  0  0
 11 19  1  0  0  0  0
 11 12  2  0  0  0  0
 12 20  1  0  0  0  0
 13 12  1  0  0  0  0
 13 14  1  0  0  0  0
 15 13  2  0  0  0  0
 16  1  1  0  0  0  0
 17  8  1  0  0  0  0
 18 10  1  0  0  0  0
 21 15  1  0  0  0  0
M  END
