000-815-912.xyz
 OpenBabel07262113373D
O=C1N=C(S/C/1=C\c1cc(ccc1N1CCCC1)[N+](=O)[O-])S
 35 37  0  0  0  0  0  0  0  0999 V2000
    5.6244   -1.9018    3.5554 O   0  0  0  0  0  0  0  0  0  0  0  0
    5.9634   -1.5424    4.6745 N   0  0  0  0  0  0  0  0  0  0  0  0
    7.0710   -1.7301    5.1593 O   0  0  0  0  0  0  0  0  0  0  0  0
    4.9783   -0.8344    5.4904 C   0  0  0  0  0  0  0  0  0  0  0  0
    5.3226   -0.4032    6.7747 C   0  0  0  0  0  0  0  0  0  0  0  0
    4.3876    0.2780    7.5348 C   0  0  0  0  0  0  0  0  0  0  0  0
    3.0855    0.5634    7.0397 C   0  0  0  0  0  0  0  0  0  0  0  0
    2.2305    1.3391    7.7785 N   0  0  0  0  0  0  0  0  0  0  0  0
    1.1683    2.2046    7.2219 C   0  0  0  0  0  0  0  0  0  0  0  0
    1.1028    3.3786    8.2009 C   0  0  0  0  0  0  0  0  0  0  0  0
    1.4463    2.7114    9.5353 C   0  0  0  0  0  0  0  0  0  0  0  0
    2.5797    1.7668    9.1386 C   0  0  0  0  0  0  0  0  0  0  0  0
    2.7202    0.0205    5.7563 C   0  0  0  0  0  0  0  0  0  0  0  0
    1.3322    0.0299    5.3149 C   0  0  0  0  0  0  0  0  0  0  0  0
    0.8050   -0.0104    4.0728 C   0  0  0  0  0  0  0  0  0  0  0  0
    1.6212   -0.0000    2.5102 S   0  0  0  0  0  0  0  0  0  0  0  0
   -0.0000   -0.0000    1.7362 C   0  0  0  0  0  0  0  0  0  0  0  0
    0.0000    0.0000    0.0000 S   0  0  0  0  0  0  0  0  0  0  0  0
   -1.0327   -0.0044    2.5082 N   0  0  0  0  0  0  0  0  0  0  0  0
   -0.6941   -0.0046    3.8708 C   0  0  0  0  0  0  0  0  0  0  0  0
   -1.4934    0.0182    4.7796 O   0  0  0  0  0  0  0  0  0  0  0  0
    3.6956   -0.6364    4.9941 C   0  0  0  0  0  0  0  0  0  0  0  0
    6.3265   -0.5987    7.1499 H   0  0  0  0  0  0  0  0  0  0  0  0
    4.6795    0.6242    8.5236 H   0  0  0  0  0  0  0  0  0  0  0  0
    1.4182    2.5052    6.1940 H   0  0  0  0  0  0  0  0  0  0  0  0
    0.1955    1.6895    7.1885 H   0  0  0  0  0  0  0  0  0  0  0  0
    0.1207    3.8723    8.1916 H   0  0  0  0  0  0  0  0  0  0  0  0
    1.8657    4.1331    7.9473 H   0  0  0  0  0  0  0  0  0  0  0  0
    0.5822    2.1383    9.9091 H   0  0  0  0  0  0  0  0  0  0  0  0
    1.7489    3.4186   10.3206 H   0  0  0  0  0  0  0  0  0  0  0  0
    2.6840    0.8987    9.8090 H   0  0  0  0  0  0  0  0  0  0  0  0
    3.5447    2.3084    9.1436 H   0  0  0  0  0  0  0  0  0  0  0  0
    0.5648    0.0368    6.0915 H   0  0  0  0  0  0  0  0  0  0  0  0
   -2.2979   -0.0283   -0.3134 Au  0  0  0  0  0  0  0  0  0  0  0  0
    3.4525   -1.0662    4.0233 H   0  0  0  0  0  0  0  0  0  0  0  0
  1  2  2  0  0  0  0
  2  3  2  0  0  0  0
  2  4  1  0  0  0  0
  4  5  1  0  0  0  0
  5 23  1  0  0  0  0
  5  6  2  0  0  0  0
  6 24  1  0  0  0  0
  7  6  1  0  0  0  0
  7  8  1  0  0  0  0
  8 12  1  0  0  0  0
  9  8  1  0  0  0  0
  9 10  1  0  0  0  0
 10 11  1  0  0  0  0
 11 29  1  0  0  0  0
 11 30  1  0  0  0  0
 12 32  1  0  0  0  0
 12 11  1  0  0  0  0
 12 31  1  0  0  0  0
 13  7  2  0  0  0  0
 14 13  1  0  0  0  0
 14 33  1  0  0  0  0
 15 14  2  0  0  0  0
 16 15  1  0  0  0  0
 17 19  2  0  0  0  0
 17 16  1  0  0  0  0
 18 17  1  0  0  0  0
 19 20  2  0  0  0  0
 20 15  1  0  0  0  0
 20 21  2  0  0  0  0
 22  4  2  0  0  0  0
 22 13  1  0  0  0  0
 25  9  1  0  0  0  0
 26  9  1  0  0  0  0
 27 10  1  0  0  0  0
 28 10  1  0  0  0  0
 34 18  1  0  0  0  0
 35 22  1  0  0  0  0
M  END
