000-742-974.xyz
 OpenBabel07262113343D
Cc1cccc(c1)N1C(=NC(=O)/C(=C/c2nc3c([nH]2)cccc3)/C1=O)S
 40 43  0  0  0  0  0  0  0  0999 V2000
    3.9847   -3.5593    0.5235 C   0  0  0  0  0  0  0  0  0  0  0  0
    3.8235   -2.1379    0.9953 C   0  0  0  0  0  0  0  0  0  0  0  0
    4.8475   -1.1940    0.8476 C   0  0  0  0  0  0  0  0  0  0  0  0
    4.6854    0.1228    1.2990 C   0  0  0  0  0  0  0  0  0  0  0  0
    3.4827    0.5245    1.8868 C   0  0  0  0  0  0  0  0  0  0  0  0
    2.4419   -0.4098    2.0060 C   0  0  0  0  0  0  0  0  0  0  0  0
    2.6194   -1.7265    1.5904 C   0  0  0  0  0  0  0  0  0  0  0  0
    1.1741    0.0000    2.5321 N   0  0  0  0  0  0  0  0  0  0  0  0
    0.0000    0.0000    1.7742 C   0  0  0  0  0  0  0  0  0  0  0  0
    0.0000    0.0000    0.0000 S   0  0  0  0  0  0  0  0  0  0  0  0
   -1.1854   -0.0146    2.2773 N   0  0  0  0  0  0  0  0  0  0  0  0
   -1.3989    0.0605    3.6452 C   0  0  0  0  0  0  0  0  0  0  0  0
   -2.4728   -0.1828    4.1575 O   0  0  0  0  0  0  0  0  0  0  0  0
   -0.2305    0.5773    4.4423 C   0  0  0  0  0  0  0  0  0  0  0  0
   -0.5135    1.2057    5.6110 C   0  0  0  0  0  0  0  0  0  0  0  0
    0.3292    1.9634    6.5050 C   0  0  0  0  0  0  0  0  0  0  0  0
    1.5006    2.5214    6.2619 N   0  0  0  0  0  0  0  0  0  0  0  0
    1.8430    3.1931    7.4061 C   0  0  0  0  0  0  0  0  0  0  0  0
    2.9886    3.9570    7.6986 C   0  0  0  0  0  0  0  0  0  0  0  0
    3.0870    4.5295    8.9597 C   0  0  0  0  0  0  0  0  0  0  0  0
    2.0704    4.3581    9.9308 C   0  0  0  0  0  0  0  0  0  0  0  0
    0.9262    3.6101    9.6698 C   0  0  0  0  0  0  0  0  0  0  0  0
    0.8266    3.0351    8.3964 C   0  0  0  0  0  0  0  0  0  0  0  0
   -0.1285    2.2617    7.7863 N   0  0  0  0  0  0  0  0  0  0  0  0
    1.1304    0.2966    3.9271 C   0  0  0  0  0  0  0  0  0  0  0  0
    2.1373    0.2287    4.5898 O   0  0  0  0  0  0  0  0  0  0  0  0
    3.2477   -3.7998   -0.2603 H   0  0  0  0  0  0  0  0  0  0  0  0
    3.8218   -4.2709    1.3490 H   0  0  0  0  0  0  0  0  0  0  0  0
    4.9884   -3.7381    0.1128 H   0  0  0  0  0  0  0  0  0  0  0  0
    5.7911   -1.4936    0.3853 H   0  0  0  0  0  0  0  0  0  0  0  0
    5.5060    0.8373    1.2027 H   0  0  0  0  0  0  0  0  0  0  0  0
    3.3446    1.5381    2.2647 H   0  0  0  0  0  0  0  0  0  0  0  0
    1.7936   -2.4323    1.7011 H   0  0  0  0  0  0  0  0  0  0  0  0
    2.0716    0.8156   -0.6530 Au  0  0  0  0  0  0  0  0  0  0  0  0
   -1.5734    1.1590    5.8882 H   0  0  0  0  0  0  0  0  0  0  0  0
    3.7681    4.0792    6.9448 H   0  0  0  0  0  0  0  0  0  0  0  0
    3.9662    5.1248    9.2160 H   0  0  0  0  0  0  0  0  0  0  0  0
    2.1884    4.8266   10.9106 H   0  0  0  0  0  0  0  0  0  0  0  0
    0.1463    3.4830   10.4232 H   0  0  0  0  0  0  0  0  0  0  0  0
   -0.9927    1.9319    8.1974 H   0  0  0  0  0  0  0  0  0  0  0  0
  1  2  1  0  0  0  0
  1 28  1  0  0  0  0
  2  7  1  0  0  0  0
  3  2  2  0  0  0  0
  3  4  1  0  0  0  0
  4  5  2  0  0  0  0
  5  6  1  0  0  0  0
  5 32  1  0  0  0  0
  6  8  1  0  0  0  0
  7 33  1  0  0  0  0
  7  6  2  0  0  0  0
  8 25  1  0  0  0  0
  9 11  2  0  0  0  0
  9  8  1  0  0  0  0
 10  9  1  0  0  0  0
 11 12  2  0  0  0  0
 12 13  2  0  0  0  0
 12 14  1  0  0  0  0
 14 15  2  0  0  0  0
 15 35  1  0  0  0  0
 15 16  1  0  0  0  0
 16 24  1  0  0  0  0
 17 16  2  0  0  0  0
 17 18  2  0  0  0  0
 18 19  1  0  0  0  0
 18 23  1  0  0  0  0
 19 20  2  0  0  0  0
 20 37  1  0  0  0  0
 20 21  1  0  0  0  0
 21 38  1  0  0  0  0
 22 21  1  0  0  0  0
 22 39  1  0  0  0  0
 23 22  2  0  0  0  0
 24 40  1  0  0  0  0
 24 23  1  0  0  0  0
 25 14  1  0  0  0  0
 25 26  2  0  0  0  0
 27  1  1  0  0  0  0
 29  1  1  0  0  0  0
 30  3  1  0  0  0  0
 31  4  1  0  0  0  0
 34 10  1  0  0  0  0
 36 19  1  0  0  0  0
M  RAD  1  21   2
M  END
