000-887-429.xyz
 OpenBabel07262113383D
CCc1ccc(s1)/C=C\1/SC(=NC1=O)S
 24 25  0  0  0  0  0  0  0  0999 V2000
    1.4142    1.3603   11.1909 C   0  0  0  0  0  0  0  0  0  0  0  0
    0.7943    0.0336   10.7297 C   0  0  0  0  0  0  0  0  0  0  0  0
    0.4689   -0.0025    9.2659 C   0  0  0  0  0  0  0  0  0  0  0  0
   -0.7771   -0.0057    8.6684 C   0  0  0  0  0  0  0  0  0  0  0  0
   -0.7413   -0.0054    7.2532 C   0  0  0  0  0  0  0  0  0  0  0  0
    0.5517    0.0007    6.7419 C   0  0  0  0  0  0  0  0  0  0  0  0
    1.0922    0.0006    5.4108 C   0  0  0  0  0  0  0  0  0  0  0  0
    0.5084   -0.0001    4.1774 C   0  0  0  0  0  0  0  0  0  0  0  0
    1.5007    0.0000    2.7030 S   0  0  0  0  0  0  0  0  0  0  0  0
    0.0000    0.0000    1.7509 C   0  0  0  0  0  0  0  0  0  0  0  0
    0.0000    0.0000    0.0000 S   0  0  0  0  0  0  0  0  0  0  0  0
   -1.1128   -0.0002    2.3910 N   0  0  0  0  0  0  0  0  0  0  0  0
   -0.9449   -0.0004    3.7875 C   0  0  0  0  0  0  0  0  0  0  0  0
   -1.8743   -0.0005    4.5674 O   0  0  0  0  0  0  0  0  0  0  0  0
    1.7179    0.0049    8.0647 S   0  0  0  0  0  0  0  0  0  0  0  0
    1.6215    1.3402   12.2722 H   0  0  0  0  0  0  0  0  0  0  0  0
    0.7363    2.2027   10.9842 H   0  0  0  0  0  0  0  0  0  0  0  0
    2.3621    1.5585   10.6664 H   0  0  0  0  0  0  0  0  0  0  0  0
   -0.1390   -0.1567   11.2835 H   0  0  0  0  0  0  0  0  0  0  0  0
    1.4777   -0.7967   10.9792 H   0  0  0  0  0  0  0  0  0  0  0  0
   -1.7014   -0.0104    9.2488 H   0  0  0  0  0  0  0  0  0  0  0  0
   -1.6087   -0.0097    6.5979 H   0  0  0  0  0  0  0  0  0  0  0  0
    2.1884    0.0019    5.3952 H   0  0  0  0  0  0  0  0  0  0  0  0
    2.2495    0.0013   -0.5093 Au  0  0  0  0  0  0  0  0  0  0  0  0
  1 16  1  0  0  0  0
  2 20  1  0  0  0  0
  2  1  1  0  0  0  0
  2 19  1  0  0  0  0
  3  2  1  0  0  0  0
  4 21  1  0  0  0  0
  4  3  2  0  0  0  0
  5  4  1  0  0  0  0
  6  5  2  0  0  0  0
  6 15  1  0  0  0  0
  7  6  1  0  0  0  0
  8  7  2  0  0  0  0
  9  8  1  0  0  0  0
 10 12  2  0  0  0  0
 10  9  1  0  0  0  0
 11 10  1  0  0  0  0
 12 13  2  0  0  0  0
 13  8  1  0  0  0  0
 13 14  2  0  0  0  0
 15  3  1  0  0  0  0
 17  1  1  0  0  0  0
 18  1  1  0  0  0  0
 22  5  1  0  0  0  0
 23  7  1  0  0  0  0
 24 11  1  0  0  0  0
M  END
