000-763-371.xyz
 OpenBabel07262113353D
SC1=NC(=O)/C(=C/c2cc(n(c2C)c2ccc(cc2)S(=O)(=O)N)C)/C(=N1)O
 43 45  0  0  0  0  0  0  0  0999 V2000
    4.5135   -0.0497    8.8092 C   0  0  0  0  0  0  0  0  0  0  0  0
    3.1431   -0.0523    8.2211 C   0  0  0  0  0  0  0  0  0  0  0  0
    2.7289   -0.0464    6.9180 C   0  0  0  0  0  0  0  0  0  0  0  0
    1.2843   -0.0162    6.8986 C   0  0  0  0  0  0  0  0  0  0  0  0
    0.3211   -0.0065    5.8491 C   0  0  0  0  0  0  0  0  0  0  0  0
    0.3202   -0.0045    4.4710 C   0  0  0  0  0  0  0  0  0  0  0  0
    1.4262   -0.0018    3.5456 C   0  0  0  0  0  0  0  0  0  0  0  0
    2.6811    0.0009    4.0071 O   0  0  0  0  0  0  0  0  0  0  0  0
    1.2844    0.0000    2.2505 N   0  0  0  0  0  0  0  0  0  0  0  0
   -0.0000    0.0000    1.7653 C   0  0  0  0  0  0  0  0  0  0  0  0
    0.0000    0.0000    0.0000 S   0  0  0  0  0  0  0  0  0  0  0  0
   -1.1110    0.0005    2.4435 N   0  0  0  0  0  0  0  0  0  0  0  0
   -1.0523   -0.0008    3.8299 C   0  0  0  0  0  0  0  0  0  0  0  0
   -2.0670    0.0007    4.5089 O   0  0  0  0  0  0  0  0  0  0  0  0
    0.8670   -0.0006    8.2510 C   0  0  0  0  0  0  0  0  0  0  0  0
   -0.4972    0.0144    8.8529 C   0  0  0  0  0  0  0  0  0  0  0  0
    1.9924   -0.0216    9.0286 N   0  0  0  0  0  0  0  0  0  0  0  0
    2.0069   -0.0079   10.4527 C   0  0  0  0  0  0  0  0  0  0  0  0
    2.3663   -1.1653   11.1540 C   0  0  0  0  0  0  0  0  0  0  0  0
    2.3893   -1.1545   12.5480 C   0  0  0  0  0  0  0  0  0  0  0  0
    2.0485    0.0199   13.2209 C   0  0  0  0  0  0  0  0  0  0  0  0
    1.6709    1.1755   12.5354 C   0  0  0  0  0  0  0  0  0  0  0  0
    1.6593    1.1604   11.1412 C   0  0  0  0  0  0  0  0  0  0  0  0
    2.0756    0.0377   15.0138 S   0  0  0  0  0  0  0  0  0  0  0  0
    3.6511    0.5220   15.3651 N   0  0  0  0  0  0  0  0  0  0  0  0
    1.1826    1.1112   15.4507 O   0  0  0  0  0  0  0  0  0  0  0  0
    1.9384   -1.3477   15.4643 O   0  0  0  0  0  0  0  0  0  0  0  0
    5.2560    0.0183    8.0029 H   0  0  0  0  0  0  0  0  0  0  0  0
    4.7257   -0.9632    9.3889 H   0  0  0  0  0  0  0  0  0  0  0  0
    4.6655    0.8055    9.4888 H   0  0  0  0  0  0  0  0  0  0  0  0
    3.3728   -0.0551    6.0488 H   0  0  0  0  0  0  0  0  0  0  0  0
   -0.7159    0.0025    6.2033 H   0  0  0  0  0  0  0  0  0  0  0  0
    3.2449    0.0043    3.2125 H   0  0  0  0  0  0  0  0  0  0  0  0
   -2.2860    0.0008   -0.3374 Au  0  0  0  0  0  0  0  0  0  0  0  0
   -0.5839   -0.7339    9.6564 H   0  0  0  0  0  0  0  0  0  0  0  0
   -1.2619   -0.2044    8.0980 H   0  0  0  0  0  0  0  0  0  0  0  0
   -0.7390    0.9944    9.2972 H   0  0  0  0  0  0  0  0  0  0  0  0
    2.6103   -2.0731   10.5998 H   0  0  0  0  0  0  0  0  0  0  0  0
    2.6455   -2.0492   13.1169 H   0  0  0  0  0  0  0  0  0  0  0  0
    1.3847    2.0675   13.0942 H   0  0  0  0  0  0  0  0  0  0  0  0
    1.3822    2.0526   10.5773 H   0  0  0  0  0  0  0  0  0  0  0  0
    4.1358   -0.2088   15.8856 H   0  0  0  0  0  0  0  0  0  0  0  0
    3.6439    1.4118   15.8632 H   0  0  0  0  0  0  0  0  0  0  0  0
  1 29  1  0  0  0  0
  1 30  1  0  0  0  0
  2  1  1  0  0  0  0
  2 17  1  0  0  0  0
  3  2  2  0  0  0  0
  4  3  1  0  0  0  0
  4 15  2  0  0  0  0
  5 32  1  0  0  0  0
  5  4  1  0  0  0  0
  6  5  2  0  0  0  0
  7  8  1  0  0  0  0
  7  6  1  0  0  0  0
  9  7  2  0  0  0  0
 10  9  2  0  0  0  0
 10 12  2  0  0  0  0
 11 10  1  0  0  0  0
 12 13  2  0  0  0  0
 13  6  1  0  0  0  0
 13 14  2  0  0  0  0
 15 16  1  0  0  0  0
 15 17  1  0  0  0  0
 16 37  1  0  0  0  0
 16 35  1  0  0  0  0
 17 18  1  0  0  0  0
 18 23  2  0  0  0  0
 18 19  1  0  0  0  0
 19 20  2  0  0  0  0
 20 39  1  0  0  0  0
 20 21  1  0  0  0  0
 21 24  1  0  0  0  0
 22 40  1  0  0  0  0
 22 21  2  0  0  0  0
 23 22  1  0  0  0  0
 24 25  1  0  0  0  0
 24 26  2  0  0  0  0
 24 27  2  0  0  0  0
 25 43  1  0  0  0  0
 25 42  1  0  0  0  0
 28  1  1  0  0  0  0
 31  3  1  0  0  0  0
 33  8  1  0  0  0  0
 34 11  1  0  0  0  0
 36 16  1  0  0  0  0
 38 19  1  0  0  0  0
 41 23  1  0  0  0  0
M  END
