000-750-793.xyz
 OpenBabel07262113353D
COc1ccc2c(c1)cc(c(=O)[nH]2)/C=C/1\N=C(N=C1O)S
 32 34  0  0  0  0  0  0  0  0999 V2000
   -9.6348   -0.0052    2.2134 C   0  0  0  0  0  0  0  0  0  0  0  0
   -8.2336   -0.0034    2.0737 O   0  0  0  0  0  0  0  0  0  0  0  0
   -7.4581   -0.0036    3.1876 C   0  0  0  0  0  0  0  0  0  0  0  0
   -7.9641   -0.0052    4.5045 C   0  0  0  0  0  0  0  0  0  0  0  0
   -7.0967   -0.0054    5.5950 C   0  0  0  0  0  0  0  0  0  0  0  0
   -5.7104   -0.0040    5.4008 C   0  0  0  0  0  0  0  0  0  0  0  0
   -4.8213   -0.0042    6.4586 N   0  0  0  0  0  0  0  0  0  0  0  0
   -3.4393   -0.0032    6.3701 C   0  0  0  0  0  0  0  0  0  0  0  0
   -2.7455   -0.0036    7.3781 O   0  0  0  0  0  0  0  0  0  0  0  0
   -2.9075   -0.0015    4.9849 C   0  0  0  0  0  0  0  0  0  0  0  0
   -1.4695   -0.0007    4.8817 C   0  0  0  0  0  0  0  0  0  0  0  0
   -0.7079   -0.0000    3.7508 C   0  0  0  0  0  0  0  0  0  0  0  0
   -1.1217    0.0001    2.4278 N   0  0  0  0  0  0  0  0  0  0  0  0
   -0.0000   -0.0000    1.7427 C   0  0  0  0  0  0  0  0  0  0  0  0
    0.0000    0.0000    0.0000 S   0  0  0  0  0  0  0  0  0  0  0  0
    1.1970    0.0000    2.4807 N   0  0  0  0  0  0  0  0  0  0  0  0
    0.7782    0.0001    3.7120 C   0  0  0  0  0  0  0  0  0  0  0  0
    1.6038    0.0002    4.7505 O   0  0  0  0  0  0  0  0  0  0  0  0
   -3.7667   -0.0011    3.9097 C   0  0  0  0  0  0  0  0  0  0  0  0
   -5.1882   -0.0023    4.0783 C   0  0  0  0  0  0  0  0  0  0  0  0
   -6.0783   -0.0021    2.9886 C   0  0  0  0  0  0  0  0  0  0  0  0
  -10.0509   -0.0049    1.1974 H   0  0  0  0  0  0  0  0  0  0  0  0
   -9.9947   -0.9044    2.7460 H   0  0  0  0  0  0  0  0  0  0  0  0
   -9.9970    0.8921    2.7475 H   0  0  0  0  0  0  0  0  0  0  0  0
   -9.0378   -0.0063    4.6887 H   0  0  0  0  0  0  0  0  0  0  0  0
   -7.5021   -0.0067    6.6097 H   0  0  0  0  0  0  0  0  0  0  0  0
   -5.1811   -0.0054    7.4086 H   0  0  0  0  0  0  0  0  0  0  0  0
   -0.9665   -0.0011    5.8545 H   0  0  0  0  0  0  0  0  0  0  0  0
    2.2817   -0.0030   -0.3625 Au  0  0  0  0  0  0  0  0  0  0  0  0
    1.0955    0.0004    5.5749 H   0  0  0  0  0  0  0  0  0  0  0  0
   -3.3391   -0.0000    2.9044 H   0  0  0  0  0  0  0  0  0  0  0  0
   -5.6914   -0.0009    1.9683 H   0  0  0  0  0  0  0  0  0  0  0  0
  1 23  1  0  0  0  0
  1 24  1  0  0  0  0
  2  1  1  0  0  0  0
  2  3  1  0  0  0  0
  3  4  1  0  0  0  0
  4 25  1  0  0  0  0
  4  5  2  0  0  0  0
  5 26  1  0  0  0  0
  6  5  1  0  0  0  0
  6  7  1  0  0  0  0
  7 27  1  0  0  0  0
  8  7  1  0  0  0  0
  8  9  2  0  0  0  0
 10  8  1  0  0  0  0
 11 10  2  0  0  0  0
 11 28  1  0  0  0  0
 12 11  1  0  0  0  0
 13 12  2  0  0  0  0
 14 13  2  0  0  0  0
 14 16  2  0  0  0  0
 15 14  1  0  0  0  0
 16 17  2  0  0  0  0
 17 12  1  0  0  0  0
 17 18  1  0  0  0  0
 18 30  1  0  0  0  0
 19 20  1  0  0  0  0
 19 10  1  0  0  0  0
 20  6  2  0  0  0  0
 21  3  2  0  0  0  0
 21 20  1  0  0  0  0
 22  1  1  0  0  0  0
 29 15  1  0  0  0  0
 31 19  1  0  0  0  0
 32 21  1  0  0  0  0
M  RAD  1  19   2
M  END
