000-871-450.xyz
 OpenBabel07262113383D
CCOc1ccc(cc1)n1c(S)nc2c(c1=O)c1CCCc1s2
 39 42  0  0  1  0  0  0  0  0999 V2000
   -7.4284    1.5770   -0.2556 C   0  0  0  0  0  0  0  0  0  0  0  0
   -6.5071    1.0333   -1.3378 C   0  0  0  0  0  0  0  0  0  0  0  0
   -5.7922   -0.1223   -0.9176 O   0  0  0  0  0  0  0  0  0  0  0  0
   -4.7058   -0.0088   -0.1198 C   0  0  0  0  0  0  0  0  0  0  0  0
   -4.1296    1.2076    0.2831 C   0  0  0  0  0  0  0  0  0  0  0  0
   -2.9941    1.2010    1.0933 C   0  0  0  0  0  0  0  0  0  0  0  0
   -2.4231   -0.0036    1.5021 C   0  0  0  0  0  0  0  0  0  0  0  0
   -3.0025   -1.2176    1.1127 C   0  0  0  0  0  0  0  0  0  0  0  0
   -4.1312   -1.2208    0.3058 C   0  0  0  0  0  0  0  0  0  0  0  0
   -1.2574    0.0004    2.3447 N   0  0  0  0  0  0  0  0  0  0  0  0
    0.0000   -0.0000    1.7754 C   0  0  0  0  0  0  0  0  0  0  0  0
    0.0000    0.0000    0.0000 S   0  0  0  0  0  0  0  0  0  0  0  0
    1.1056   -0.0000    2.4680 N   0  0  0  0  0  0  0  0  0  0  0  0
    0.9690   -0.0021    3.8134 C   0  0  0  0  0  0  0  0  0  0  0  0
   -0.2421    0.0045    4.5134 C   0  0  2  0  0  0  0  0  0  0  0  0
   -1.4796    0.0071    3.7659 C   0  0  0  0  0  0  0  0  0  0  0  0
   -2.6116    0.0145    4.2088 O   0  0  0  0  0  0  0  0  0  0  0  0
   -0.0459    0.0195    5.9285 C   0  0  0  0  0  0  0  0  0  0  0  0
   -0.9278   -0.0279    7.1457 C   0  0  0  0  0  0  0  0  0  0  0  0
    0.0711    0.2999    8.2932 C   0  0  0  0  0  0  0  0  0  0  0  0
    1.4980   -0.0339    7.7619 C   0  0  0  0  0  0  0  0  0  0  0  0
    1.2764    0.0227    6.2777 C   0  0  0  0  0  0  0  0  0  0  0  0
    2.3495    0.0016    4.9009 S   0  0  0  0  0  0  0  0  0  0  0  0
   -8.1299    0.7961    0.0749 H   0  0  0  0  0  0  0  0  0  0  0  0
   -6.8669    1.9242    0.6243 H   0  0  0  0  0  0  0  0  0  0  0  0
   -8.0119    2.4255   -0.6469 H   0  0  0  0  0  0  0  0  0  0  0  0
   -7.0941    0.6970   -2.2052 H   0  0  0  0  0  0  0  0  0  0  0  0
   -5.8064    1.8061   -1.7004 H   0  0  0  0  0  0  0  0  0  0  0  0
   -4.5553    2.1620   -0.0228 H   0  0  0  0  0  0  0  0  0  0  0  0
   -2.5432    2.1421    1.4125 H   0  0  0  0  0  0  0  0  0  0  0  0
   -2.5558   -2.1558    1.4458 H   0  0  0  0  0  0  0  0  0  0  0  0
   -4.5971   -2.1535   -0.0155 H   0  0  0  0  0  0  0  0  0  0  0  0
    2.2891   -0.0125   -0.3413 Au  0  0  0  0  0  0  0  0  0  0  0  0
   -1.3717   -1.0334    7.2569 H   0  0  0  0  0  0  0  0  0  0  0  0
   -1.7710    0.6765    7.0936 H   0  0  0  0  0  0  0  0  0  0  0  0
   -0.1620   -0.2343    9.2259 H   0  0  0  0  0  0  0  0  0  0  0  0
    0.0207    1.3779    8.5130 H   0  0  0  0  0  0  0  0  0  0  0  0
    2.2580    0.6755    8.1270 H   0  0  0  0  0  0  0  0  0  0  0  0
    1.8277   -1.0423    8.0738 H   0  0  0  0  0  0  0  0  0  0  0  0
  1 24  1  0  0  0  0
  1 25  1  0  0  0  0
  2  3  1  0  0  0  0
  2  1  1  0  0  0  0
  3  4  1  0  0  0  0
  4  5  2  0  0  0  0
  4  9  1  0  0  0  0
  5  6  1  0  0  0  0
  6 30  1  0  0  0  0
  6  7  2  0  0  0  0
  7 10  1  0  0  0  0
  8 31  1  0  0  0  0
  8  7  1  0  0  0  0
  9  8  2  0  0  0  0
 10 16  1  0  0  0  0
 11 10  1  0  0  0  0
 11 13  2  0  0  0  0
 12 11  1  0  0  0  0
 13 14  2  0  0  0  0
 14 15  1  0  0  0  0
 14 23  1  0  0  0  0
 15 16  1  6  0  0  0
 15 18  1  0  0  0  0
 16 17  2  0  0  0  0
 18 22  2  0  0  0  0
 18 19  1  0  0  0  0
 19 34  1  0  0  0  0
 19 20  1  0  0  0  0
 20 37  1  0  0  0  0
 20 36  1  0  0  0  0
 21 39  1  0  0  0  0
 21 38  1  0  0  0  0
 21 20  1  0  0  0  0
 22 21  1  0  0  0  0
 23 22  1  0  0  0  0
 26  1  1  0  0  0  0
 27  2  1  0  0  0  0
 28  2  1  0  0  0  0
 29  5  1  0  0  0  0
 32  9  1  0  0  0  0
 33 12  1  0  0  0  0
 35 19  1  0  0  0  0
M  RAD  1  15   2
M  END
