000-888-885.xyz
 OpenBabel07262113383D
SC1=NC(=O)/C(=C\c2ccccc2[N+](=O)[O-])/S1
 23 24  0  0  0  0  0  0  0  0999 V2000
    1.8060   -2.6921    8.5953 O   0  0  0  0  0  0  0  0  0  0  0  0
    1.5224   -2.0495    7.5986 N   0  0  0  0  0  0  0  0  0  0  0  0
    1.9422   -2.2999    6.4765 O   0  0  0  0  0  0  0  0  0  0  0  0
    0.6120   -0.8983    7.7590 C   0  0  0  0  0  0  0  0  0  0  0  0
   -0.0057   -0.7598    9.0043 C   0  0  0  0  0  0  0  0  0  0  0  0
   -0.9002    0.2845    9.2141 C   0  0  0  0  0  0  0  0  0  0  0  0
   -1.1669    1.1832    8.1758 C   0  0  0  0  0  0  0  0  0  0  0  0
   -0.5449    1.0356    6.9393 C   0  0  0  0  0  0  0  0  0  0  0  0
    0.3603   -0.0116    6.6897 C   0  0  0  0  0  0  0  0  0  0  0  0
    1.0694   -0.0823    5.3997 C   0  0  0  0  0  0  0  0  0  0  0  0
    0.5280    0.0121    4.1671 C   0  0  0  0  0  0  0  0  0  0  0  0
    1.5123    0.0000    2.6928 S   0  0  0  0  0  0  0  0  0  0  0  0
   -0.0000   -0.0000    1.7456 C   0  0  0  0  0  0  0  0  0  0  0  0
    0.0000    0.0000    0.0000 S   0  0  0  0  0  0  0  0  0  0  0  0
   -1.1132    0.0073    2.3865 N   0  0  0  0  0  0  0  0  0  0  0  0
   -0.9453    0.0211    3.7803 C   0  0  0  0  0  0  0  0  0  0  0  0
   -1.8559    0.0302    4.5734 O   0  0  0  0  0  0  0  0  0  0  0  0
    0.2280   -1.4845    9.7823 H   0  0  0  0  0  0  0  0  0  0  0  0
   -1.3902    0.3952   10.1834 H   0  0  0  0  0  0  0  0  0  0  0  0
   -1.8671    2.0070    8.3294 H   0  0  0  0  0  0  0  0  0  0  0  0
   -0.7530    1.7442    6.1395 H   0  0  0  0  0  0  0  0  0  0  0  0
    2.1521   -0.2084    5.4640 H   0  0  0  0  0  0  0  0  0  0  0  0
    2.2497   -0.0583   -0.5116 Au  0  0  0  0  0  0  0  0  0  0  0  0
  2  4  1  0  0  0  0
  2  1  2  0  0  0  0
  3  2  2  0  0  0  0
  4  5  2  0  0  0  0
  5  6  1  0  0  0  0
  5 18  1  0  0  0  0
  6 19  1  0  0  0  0
  7 20  1  0  0  0  0
  7  6  2  0  0  0  0
  8  7  1  0  0  0  0
  9  8  2  0  0  0  0
  9  4  1  0  0  0  0
 10 22  1  0  0  0  0
 10  9  1  0  0  0  0
 11 10  2  0  0  0  0
 12 11  1  0  0  0  0
 13 15  2  0  0  0  0
 13 12  1  0  0  0  0
 14 13  1  0  0  0  0
 15 16  2  0  0  0  0
 16 11  1  0  0  0  0
 16 17  2  0  0  0  0
 21  8  1  0  0  0  0
 23 14  1  0  0  0  0
M  END
