000-721-930.xyz
 OpenBabel07262113333D
COc1ccccc1N1C(=NC(=O)/C(=C/c2nc3c([nH]2)cccc3)/C1=O)S
 41 44  0  0  0  0  0  0  0  0999 V2000
   -3.8741   -2.7755    3.2268 C   0  0  0  0  0  0  0  0  0  0  0  0
   -2.9690   -1.9074    2.5681 O   0  0  0  0  0  0  0  0  0  0  0  0
   -3.4135   -0.7400    2.0665 C   0  0  0  0  0  0  0  0  0  0  0  0
   -4.7106   -0.5148    1.5846 C   0  0  0  0  0  0  0  0  0  0  0  0
   -5.0470    0.7369    1.0528 C   0  0  0  0  0  0  0  0  0  0  0  0
   -4.1119    1.7724    1.0100 C   0  0  0  0  0  0  0  0  0  0  0  0
   -2.8211    1.5561    1.5019 C   0  0  0  0  0  0  0  0  0  0  0  0
   -2.4675    0.3087    2.0074 C   0  0  0  0  0  0  0  0  0  0  0  0
   -1.1667    0.0467    2.5316 N   0  0  0  0  0  0  0  0  0  0  0  0
   -0.0000   -0.0000    1.7731 C   0  0  0  0  0  0  0  0  0  0  0  0
    0.0000    0.0000    0.0000 S   0  0  0  0  0  0  0  0  0  0  0  0
    1.1905    0.0000    2.2695 N   0  0  0  0  0  0  0  0  0  0  0  0
    1.4157   -0.1068    3.6330 C   0  0  0  0  0  0  0  0  0  0  0  0
    2.4991    0.0850    4.1457 O   0  0  0  0  0  0  0  0  0  0  0  0
    0.2313   -0.6002    4.4204 C   0  0  0  0  0  0  0  0  0  0  0  0
    0.4658   -1.3373    5.5303 C   0  0  0  0  0  0  0  0  0  0  0  0
   -0.4624   -2.1043    6.3358 C   0  0  0  0  0  0  0  0  0  0  0  0
   -1.6216   -2.6239    5.9771 N   0  0  0  0  0  0  0  0  0  0  0  0
   -2.0796   -3.3159    7.0712 C   0  0  0  0  0  0  0  0  0  0  0  0
   -3.2638   -4.0548    7.2467 C   0  0  0  0  0  0  0  0  0  0  0  0
   -3.4830   -4.6567    8.4797 C   0  0  0  0  0  0  0  0  0  0  0  0
   -2.5484   -4.5389    9.5355 C   0  0  0  0  0  0  0  0  0  0  0  0
   -1.3674   -3.8160    9.3895 C   0  0  0  0  0  0  0  0  0  0  0  0
   -1.1476   -3.2122    8.1458 C   0  0  0  0  0  0  0  0  0  0  0  0
   -0.1230   -2.4500    7.6379 N   0  0  0  0  0  0  0  0  0  0  0  0
   -1.1123   -0.2095    3.9332 C   0  0  0  0  0  0  0  0  0  0  0  0
   -2.0841   -0.0368    4.6269 O   0  0  0  0  0  0  0  0  0  0  0  0
   -3.2561   -3.4567    3.8239 H   0  0  0  0  0  0  0  0  0  0  0  0
   -4.5310   -2.2078    3.9054 H   0  0  0  0  0  0  0  0  0  0  0  0
   -4.4855   -3.3475    2.5068 H   0  0  0  0  0  0  0  0  0  0  0  0
   -5.4539   -1.3116    1.6266 H   0  0  0  0  0  0  0  0  0  0  0  0
   -6.0597    0.9002    0.6768 H   0  0  0  0  0  0  0  0  0  0  0  0
   -4.3849    2.7475    0.6033 H   0  0  0  0  0  0  0  0  0  0  0  0
   -2.0711    2.3480    1.4832 H   0  0  0  0  0  0  0  0  0  0  0  0
   -2.0108   -0.9160   -0.6854 Au  0  0  0  0  0  0  0  0  0  0  0  0
    1.5204   -1.3937    5.8253 H   0  0  0  0  0  0  0  0  0  0  0  0
   -3.9846   -4.1383    6.4317 H   0  0  0  0  0  0  0  0  0  0  0  0
   -4.3962   -5.2329    8.6445 H   0  0  0  0  0  0  0  0  0  0  0  0
   -2.7596   -5.0282   10.4890 H   0  0  0  0  0  0  0  0  0  0  0  0
   -0.6498   -3.7293   10.2078 H   0  0  0  0  0  0  0  0  0  0  0  0
    0.7076   -2.1477    8.1313 H   0  0  0  0  0  0  0  0  0  0  0  0
  1 28  1  0  0  0  0
  1 29  1  0  0  0  0
  2  1  1  0  0  0  0
  3  2  1  0  0  0  0
  4 31  1  0  0  0  0
  4  3  2  0  0  0  0
  5  4  1  0  0  0  0
  6  5  2  0  0  0  0
  6  7  1  0  0  0  0
  7  8  2  0  0  0  0
  8  3  1  0  0  0  0
  8  9  1  0  0  0  0
  9 26  1  0  0  0  0
 10 12  2  0  0  0  0
 10  9  1  0  0  0  0
 11 10  1  0  0  0  0
 12 13  2  0  0  0  0
 13 14  2  0  0  0  0
 13 15  1  0  0  0  0
 15 16  2  0  0  0  0
 16 36  1  0  0  0  0
 16 17  1  0  0  0  0
 17 25  1  0  0  0  0
 18 17  2  0  0  0  0
 18 19  2  0  0  0  0
 19 20  1  0  0  0  0
 19 24  1  0  0  0  0
 20 21  2  0  0  0  0
 21 38  1  0  0  0  0
 21 22  1  0  0  0  0
 22 39  1  0  0  0  0
 23 22  1  0  0  0  0
 23 40  1  0  0  0  0
 24 23  2  0  0  0  0
 25 41  1  0  0  0  0
 25 24  1  0  0  0  0
 26 15  1  0  0  0  0
 26 27  2  0  0  0  0
 30  1  1  0  0  0  0
 32  5  1  0  0  0  0
 33  6  1  0  0  0  0
 34  7  1  0  0  0  0
 35 11  1  0  0  0  0
 37 20  1  0  0  0  0
M  RAD  1  22   2
M  END
