000-720-749.xyz
 OpenBabel07262113333D
O=C1N=C(S)N(C(=O)/C/1=C\c1cn(c2c1cccc2)C)c1ccccc1C
 44 47  0  0  0  0  0  0  0  0999 V2000
    1.9227   -2.6656    1.7586 C   0  0  0  0  0  0  0  0  0  0  0  0
    2.8554   -1.4980    1.5987 C   0  0  0  0  0  0  0  0  0  0  0  0
    4.1191   -1.6467    1.0044 C   0  0  0  0  0  0  0  0  0  0  0  0
    4.9749   -0.5594    0.8272 C   0  0  0  0  0  0  0  0  0  0  0  0
    4.5933    0.7139    1.2706 C   0  0  0  0  0  0  0  0  0  0  0  0
    3.3407    0.8847    1.8672 C   0  0  0  0  0  0  0  0  0  0  0  0
    2.4728   -0.2069    1.9979 C   0  0  0  0  0  0  0  0  0  0  0  0
    1.1649   -0.0000    2.5486 N   0  0  0  0  0  0  0  0  0  0  0  0
    0.0000    0.0000    1.7829 C   0  0  0  0  0  0  0  0  0  0  0  0
    0.0000    0.0000    0.0000 S   0  0  0  0  0  0  0  0  0  0  0  0
   -1.1880   -0.0433    2.2655 N   0  0  0  0  0  0  0  0  0  0  0  0
   -1.4258   -0.1057    3.6381 C   0  0  0  0  0  0  0  0  0  0  0  0
   -2.5488   -0.2875    4.0708 O   0  0  0  0  0  0  0  0  0  0  0  0
   -0.2466    0.1067    4.5364 C   0  0  0  0  0  0  0  0  0  0  0  0
   -0.5347    0.2344    5.8804 C   0  0  0  0  0  0  0  0  0  0  0  0
    0.2106    0.4327    7.0729 C   0  0  0  0  0  0  0  0  0  0  0  0
    1.5912    0.5390    7.3053 C   0  0  0  0  0  0  0  0  0  0  0  0
    1.8325    0.7235    8.6279 N   0  0  0  0  0  0  0  0  0  0  0  0
    3.1360    0.8694    9.2385 C   0  0  0  0  0  0  0  0  0  0  0  0
    0.6260    0.7468    9.3278 C   0  0  0  0  0  0  0  0  0  0  0  0
    0.3899    0.9101   10.6956 C   0  0  0  0  0  0  0  0  0  0  0  0
   -0.9389    0.8895   11.1191 C   0  0  0  0  0  0  0  0  0  0  0  0
   -1.9918    0.7114   10.2003 C   0  0  0  0  0  0  0  0  0  0  0  0
   -1.7442    0.5499    8.8378 C   0  0  0  0  0  0  0  0  0  0  0  0
   -0.4169    0.5662    8.3861 C   0  0  0  0  0  0  0  0  0  0  0  0
    1.0946    0.1244    3.9672 C   0  0  0  0  0  0  0  0  0  0  0  0
    2.1442    0.2049    4.5892 O   0  0  0  0  0  0  0  0  0  0  0  0
    2.4468   -3.6161    1.5882 H   0  0  0  0  0  0  0  0  0  0  0  0
    1.4760   -2.6890    2.7641 H   0  0  0  0  0  0  0  0  0  0  0  0
    1.0923   -2.5969    1.0361 H   0  0  0  0  0  0  0  0  0  0  0  0
    4.4304   -2.6398    0.6715 H   0  0  0  0  0  0  0  0  0  0  0  0
    5.9498   -0.7053    0.3568 H   0  0  0  0  0  0  0  0  0  0  0  0
    5.2696    1.5648    1.1652 H   0  0  0  0  0  0  0  0  0  0  0  0
    3.0196    1.8606    2.2338 H   0  0  0  0  0  0  0  0  0  0  0  0
    1.9948    0.9253   -0.7243 Au  0  0  0  0  0  0  0  0  0  0  0  0
   -1.6157    0.1632    6.0473 H   0  0  0  0  0  0  0  0  0  0  0  0
    2.3884    0.4827    6.5711 H   0  0  0  0  0  0  0  0  0  0  0  0
    3.9076    0.8093    8.4608 H   0  0  0  0  0  0  0  0  0  0  0  0
    3.2187    1.8420    9.7495 H   0  0  0  0  0  0  0  0  0  0  0  0
    3.3103    0.0707    9.9770 H   0  0  0  0  0  0  0  0  0  0  0  0
    1.2065    1.0481   11.4066 H   0  0  0  0  0  0  0  0  0  0  0  0
   -1.1662    1.0136   12.1802 H   0  0  0  0  0  0  0  0  0  0  0  0
   -3.0215    0.6999   10.5646 H   0  0  0  0  0  0  0  0  0  0  0  0
   -2.5712    0.4131    8.1376 H   0  0  0  0  0  0  0  0  0  0  0  0
  1 29  1  0  0  0  0
  2  1  1  0  0  0  0
  2  7  2  0  0  0  0
  3  2  1  0  0  0  0
  4  3  2  0  0  0  0
  4  5  1  0  0  0  0
  5  6  2  0  0  0  0
  6  7  1  0  0  0  0
  6 34  1  0  0  0  0
  7  8  1  0  0  0  0
  8 26  1  0  0  0  0
  9 11  2  0  0  0  0
  9  8  1  0  0  0  0
 10  9  1  0  0  0  0
 11 12  2  0  0  0  0
 12 13  2  0  0  0  0
 12 14  1  0  0  0  0
 14 15  2  0  0  0  0
 15 36  1  0  0  0  0
 15 16  1  0  0  0  0
 16 17  2  0  0  0  0
 16 25  1  0  0  0  0
 17 18  1  0  0  0  0
 18 19  1  0  0  0  0
 18 20  1  0  0  0  0
 19 39  1  0  0  0  0
 19 40  1  0  0  0  0
 20 21  2  0  0  0  0
 21 22  1  0  0  0  0
 21 41  1  0  0  0  0
 22 42  1  0  0  0  0
 23 43  1  0  0  0  0
 23 22  2  0  0  0  0
 24 23  1  0  0  0  0
 25 24  2  0  0  0  0
 25 20  1  0  0  0  0
 26 14  1  0  0  0  0
 26 27  2  0  0  0  0
 28  1  1  0  0  0  0
 30  1  1  0  0  0  0
 31  3  1  0  0  0  0
 32  4  1  0  0  0  0
 33  5  1  0  0  0  0
 35 10  1  0  0  0  0
 37 17  1  0  0  0  0
 38 19  1  0  0  0  0
 44 24  1  0  0  0  0
M  END
