000-827-461.xyz
 OpenBabel07262113373D
Clc1ccc(cc1)n1cccc1/C=C\1/C(=O)N=C(N(C1=O)c1ccccc1)S
 42 45  0  0  0  0  0  0  0  0999 V2000
    0.0000    0.0000    0.0000 S   0  0  0  0  0  0  0  0  0  0  0  0
    0.0000    0.0000    1.7728 C   0  0  0  0  0  0  0  0  0  0  0  0
   -1.1068   -0.0004    2.4407 N   0  0  0  0  0  0  0  0  0  0  0  0
   -1.1050   -0.0015    3.8324 C   0  0  0  0  0  0  0  0  0  0  0  0
   -2.1562    0.0113    4.4512 O   0  0  0  0  0  0  0  0  0  0  0  0
    0.2241   -0.0134    4.5293 C   0  0  0  0  0  0  0  0  0  0  0  0
    0.1605   -0.0071    5.9052 C   0  0  0  0  0  0  0  0  0  0  0  0
    1.1061   -0.0035    6.9620 C   0  0  0  0  0  0  0  0  0  0  0  0
    2.5079   -0.1226    7.0384 C   0  0  0  0  0  0  0  0  0  0  0  0
    2.8743   -0.1529    8.3937 C   0  0  0  0  0  0  0  0  0  0  0  0
    1.7059   -0.0433    9.1431 C   0  0  0  0  0  0  0  0  0  0  0  0
    0.6428    0.0508    8.2980 N   0  0  0  0  0  0  0  0  0  0  0  0
   -0.7047    0.1889    8.7344 C   0  0  0  0  0  0  0  0  0  0  0  0
   -1.4693    1.2950    8.3432 C   0  0  0  0  0  0  0  0  0  0  0  0
   -2.7862    1.4253    8.7799 C   0  0  0  0  0  0  0  0  0  0  0  0
   -3.3296    0.4553    9.6272 C   0  0  0  0  0  0  0  0  0  0  0  0
   -4.9737    0.6205   10.1836 Cl  0  0  0  0  0  0  0  0  0  0  0  0
   -2.5713   -0.6462   10.0331 C   0  0  0  0  0  0  0  0  0  0  0  0
   -1.2605   -0.7807    9.5769 C   0  0  0  0  0  0  0  0  0  0  0  0
    1.4561   -0.0120    3.7424 C   0  0  0  0  0  0  0  0  0  0  0  0
    2.5965   -0.0209    4.1709 O   0  0  0  0  0  0  0  0  0  0  0  0
    1.2645    0.0000    2.3341 N   0  0  0  0  0  0  0  0  0  0  0  0
    2.4416    0.0020    1.5050 C   0  0  0  0  0  0  0  0  0  0  0  0
    3.0038    1.2172    1.1064 C   0  0  0  0  0  0  0  0  0  0  0  0
    4.1394    1.2167    0.2958 C   0  0  0  0  0  0  0  0  0  0  0  0
    4.7112    0.0062   -0.1072 C   0  0  0  0  0  0  0  0  0  0  0  0
    4.1487   -1.2064    0.3028 C   0  0  0  0  0  0  0  0  0  0  0  0
    3.0130   -1.2112    1.1131 C   0  0  0  0  0  0  0  0  0  0  0  0
   -2.3081   -0.0076   -0.2557 Au  0  0  0  0  0  0  0  0  0  0  0  0
   -0.8844   -0.0057    6.2335 H   0  0  0  0  0  0  0  0  0  0  0  0
    3.1457   -0.1881    6.1648 H   0  0  0  0  0  0  0  0  0  0  0  0
    3.8810   -0.2334    8.7976 H   0  0  0  0  0  0  0  0  0  0  0  0
    1.5573    0.0066   10.2197 H   0  0  0  0  0  0  0  0  0  0  0  0
   -1.0298    2.0549    7.6957 H   0  0  0  0  0  0  0  0  0  0  0  0
   -3.3912    2.2785    8.4719 H   0  0  0  0  0  0  0  0  0  0  0  0
   -3.0132   -1.3977   10.6882 H   0  0  0  0  0  0  0  0  0  0  0  0
   -0.6648   -1.6493    9.8630 H   0  0  0  0  0  0  0  0  0  0  0  0
    2.5423    2.1515    1.4303 H   0  0  0  0  0  0  0  0  0  0  0  0
    4.5797    2.1644   -0.0217 H   0  0  0  0  0  0  0  0  0  0  0  0
    5.6000    0.0077   -0.7424 H   0  0  0  0  0  0  0  0  0  0  0  0
    4.5964   -2.1526   -0.0093 H   0  0  0  0  0  0  0  0  0  0  0  0
    2.5587   -2.1472    1.4423 H   0  0  0  0  0  0  0  0  0  0  0  0
  1  2  1  0  0  0  0
  2 22  1  0  0  0  0
  2  3  2  0  0  0  0
  3  4  2  0  0  0  0
  4  5  2  0  0  0  0
  4  6  1  0  0  0  0
  6  7  2  0  0  0  0
  7 30  1  0  0  0  0
  7  8  1  0  0  0  0
  8  9  2  0  0  0  0
  8 12  1  0  0  0  0
  9 10  1  0  0  0  0
 10 32  1  0  0  0  0
 10 11  2  0  0  0  0
 11 33  1  0  0  0  0
 12 13  1  0  0  0  0
 12 11  1  0  0  0  0
 13 19  1  0  0  0  0
 14 13  2  0  0  0  0
 14 15  1  0  0  0  0
 15 16  2  0  0  0  0
 16 18  1  0  0  0  0
 16 17  1  0  0  0  0
 18 36  1  0  0  0  0
 19 37  1  0  0  0  0
 19 18  2  0  0  0  0
 20 21  2  0  0  0  0
 20  6  1  0  0  0  0
 22 20  1  0  0  0  0
 23 22  1  0  0  0  0
 24 38  1  0  0  0  0
 24 23  2  0  0  0  0
 25 24  1  0  0  0  0
 26 25  2  0  0  0  0
 26 27  1  0  0  0  0
 27 28  2  0  0  0  0
 28 42  1  0  0  0  0
 28 23  1  0  0  0  0
 29  1  1  0  0  0  0
 31  9  1  0  0  0  0
 34 14  1  0  0  0  0
 35 15  1  0  0  0  0
 39 25  1  0  0  0  0
 40 26  1  0  0  0  0
 41 27  1  0  0  0  0
M  END
