000-762-094.xyz
 OpenBabel07262113353D
Fc1ccc(cc1)n1c(C)cc(c1C)/C=C\1/C(=O)N=C(N(C1=O)c1ccc(c(c1)C)C)S
 54 57  0  0  0  0  0  0  0  0999 V2000
   -2.9782    1.4639    9.4662 C   0  0  0  0  0  0  0  0  0  0  0  0
   -1.7596    1.2092    8.6459 C   0  0  0  0  0  0  0  0  0  0  0  0
   -1.6119    0.9209    7.3170 C   0  0  0  0  0  0  0  0  0  0  0  0
   -0.2010    0.7668    7.0427 C   0  0  0  0  0  0  0  0  0  0  0  0
    0.5287    0.4739    5.8551 C   0  0  0  0  0  0  0  0  0  0  0  0
    0.2307    0.2472    4.5289 C   0  0  0  0  0  0  0  0  0  0  0  0
    1.4132   -0.0191    3.6461 C   0  0  0  0  0  0  0  0  0  0  0  0
    2.5327   -0.1940    4.0935 O   0  0  0  0  0  0  0  0  0  0  0  0
    1.1869    0.0000    2.2718 N   0  0  0  0  0  0  0  0  0  0  0  0
   -0.0000   -0.0000    1.7831 C   0  0  0  0  0  0  0  0  0  0  0  0
    0.0000    0.0000    0.0000 S   0  0  0  0  0  0  0  0  0  0  0  0
   -1.1663   -0.0225    2.5448 N   0  0  0  0  0  0  0  0  0  0  0  0
   -1.1138    0.1983    3.9568 C   0  0  0  0  0  0  0  0  0  0  0  0
   -2.1667    0.2922    4.5625 O   0  0  0  0  0  0  0  0  0  0  0  0
   -2.4524   -0.3203    1.9906 C   0  0  0  0  0  0  0  0  0  0  0  0
   -3.4257    0.6768    1.8719 C   0  0  0  0  0  0  0  0  0  0  0  0
   -4.6381    0.3710    1.2459 C   0  0  0  0  0  0  0  0  0  0  0  0
   -4.9048   -0.9151    0.7478 C   0  0  0  0  0  0  0  0  0  0  0  0
   -6.2153   -1.2156    0.0700 C   0  0  0  0  0  0  0  0  0  0  0  0
   -3.9303   -1.9254    0.9070 C   0  0  0  0  0  0  0  0  0  0  0  0
   -4.1828   -3.3204    0.3998 C   0  0  0  0  0  0  0  0  0  0  0  0
   -2.7190   -1.6110    1.5352 C   0  0  0  0  0  0  0  0  0  0  0  0
    0.4723    0.9764    8.2703 C   0  0  0  0  0  0  0  0  0  0  0  0
    1.9219    0.9488    8.6167 C   0  0  0  0  0  0  0  0  0  0  0  0
   -0.4760    1.2404    9.2177 N   0  0  0  0  0  0  0  0  0  0  0  0
   -0.2093    1.5075   10.5930 C   0  0  0  0  0  0  0  0  0  0  0  0
    0.0361    2.8187   11.0156 C   0  0  0  0  0  0  0  0  0  0  0  0
    0.2929    3.0857   12.3607 C   0  0  0  0  0  0  0  0  0  0  0  0
    0.2977    2.0276   13.2678 C   0  0  0  0  0  0  0  0  0  0  0  0
    0.5424    2.2785   14.5583 F   0  0  0  0  0  0  0  0  0  0  0  0
    0.0541    0.7152   12.8669 C   0  0  0  0  0  0  0  0  0  0  0  0
   -0.2005    0.4587   11.5194 C   0  0  0  0  0  0  0  0  0  0  0  0
   -2.9626    2.4646    9.9301 H   0  0  0  0  0  0  0  0  0  0  0  0
   -3.0868    0.7331   10.2852 H   0  0  0  0  0  0  0  0  0  0  0  0
   -3.8694    1.3965    8.8280 H   0  0  0  0  0  0  0  0  0  0  0  0
   -2.3996    0.8137    6.5814 H   0  0  0  0  0  0  0  0  0  0  0  0
    1.6117    0.4108    6.0048 H   0  0  0  0  0  0  0  0  0  0  0  0
   -2.0198    0.8992   -0.6935 Au  0  0  0  0  0  0  0  0  0  0  0  0
   -3.2311    1.6741    2.2669 H   0  0  0  0  0  0  0  0  0  0  0  0
   -5.4010    1.1479    1.1504 H   0  0  0  0  0  0  0  0  0  0  0  0
   -6.8534   -0.3223    0.0157 H   0  0  0  0  0  0  0  0  0  0  0  0
   -6.7752   -1.9992    0.6075 H   0  0  0  0  0  0  0  0  0  0  0  0
   -6.0635   -1.5885   -0.9565 H   0  0  0  0  0  0  0  0  0  0  0  0
   -4.3585   -3.3262   -0.6889 H   0  0  0  0  0  0  0  0  0  0  0  0
   -3.3304   -3.9819    0.6069 H   0  0  0  0  0  0  0  0  0  0  0  0
   -5.0788   -3.7633    0.8659 H   0  0  0  0  0  0  0  0  0  0  0  0
   -1.9475   -2.3757    1.6416 H   0  0  0  0  0  0  0  0  0  0  0  0
    2.1308    0.2068    9.4048 H   0  0  0  0  0  0  0  0  0  0  0  0
    2.2629    1.9250    8.9994 H   0  0  0  0  0  0  0  0  0  0  0  0
    2.5325    0.6958    7.7420 H   0  0  0  0  0  0  0  0  0  0  0  0
    0.0233    3.6271   10.2823 H   0  0  0  0  0  0  0  0  0  0  0  0
    0.4880    4.0984   12.7168 H   0  0  0  0  0  0  0  0  0  0  0  0
    0.0674   -0.0839   13.6098 H   0  0  0  0  0  0  0  0  0  0  0  0
   -0.3943   -0.5589   11.1754 H   0  0  0  0  0  0  0  0  0  0  0  0
  1 33  1  0  0  0  0
  1 34  1  0  0  0  0
  2 25  1  0  0  0  0
  2  1  1  0  0  0  0
  3  2  2  0  0  0  0
  4  3  1  0  0  0  0
  4 23  2  0  0  0  0
  5 37  1  0  0  0  0
  5  4  1  0  0  0  0
  6  5  2  0  0  0  0
  7  8  2  0  0  0  0
  7  6  1  0  0  0  0
  9  7  2  0  0  0  0
 10  9  2  0  0  0  0
 10 12  1  0  0  0  0
 11 10  1  0  0  0  0
 12 13  1  0  0  0  0
 13  6  1  0  0  0  0
 13 14  2  0  0  0  0
 15 12  1  0  0  0  0
 16 15  1  0  0  0  0
 16 39  1  0  0  0  0
 17 16  2  0  0  0  0
 18 20  2  0  0  0  0
 18 17  1  0  0  0  0
 19 42  1  0  0  0  0
 19 18  1  0  0  0  0
 20 22  1  0  0  0  0
 21 45  1  0  0  0  0
 21 46  1  0  0  0  0
 21 20  1  0  0  0  0
 22 47  1  0  0  0  0
 22 15  2  0  0  0  0
 23 24  1  0  0  0  0
 23 25  1  0  0  0  0
 24 49  1  0  0  0  0
 24 48  1  0  0  0  0
 25 26  1  0  0  0  0
 26 27  2  0  0  0  0
 26 32  1  0  0  0  0
 27 28  1  0  0  0  0
 28 52  1  0  0  0  0
 28 29  2  0  0  0  0
 29 30  1  0  0  0  0
 31 29  1  0  0  0  0
 31 53  1  0  0  0  0
 32 31  2  0  0  0  0
 35  1  1  0  0  0  0
 36  3  1  0  0  0  0
 38 11  1  0  0  0  0
 40 17  1  0  0  0  0
 41 19  1  0  0  0  0
 43 19  1  0  0  0  0
 44 21  1  0  0  0  0
 50 24  1  0  0  0  0
 51 27  1  0  0  0  0
 54 32  1  0  0  0  0
M  END
