000-723-493.xyz
 OpenBabel07262113333D
Cc1cccc(c1)N1C(=NC(=O)/C(=C/c2c(Cl)cccc2Cl)/C1=O)S
 37 39  0  0  0  0  0  0  0  0999 V2000
    4.1449    3.3739    0.4142 C   0  0  0  0  0  0  0  0  0  0  0  0
    3.9191    1.9743    0.9230 C   0  0  0  0  0  0  0  0  0  0  0  0
    4.8949    0.9784    0.7920 C   0  0  0  0  0  0  0  0  0  0  0  0
    4.6732   -0.3182    1.2762 C   0  0  0  0  0  0  0  0  0  0  0  0
    3.4573   -0.6472    1.8815 C   0  0  0  0  0  0  0  0  0  0  0  0
    2.4646    0.3406    1.9841 C   0  0  0  0  0  0  0  0  0  0  0  0
    2.7007    1.6365    1.5357 C   0  0  0  0  0  0  0  0  0  0  0  0
    1.1837   -0.0000    2.5278 N   0  0  0  0  0  0  0  0  0  0  0  0
   -0.0000   -0.0000    1.7740 C   0  0  0  0  0  0  0  0  0  0  0  0
    0.0000    0.0000    0.0000 S   0  0  0  0  0  0  0  0  0  0  0  0
   -1.1809    0.0189    2.2837 N   0  0  0  0  0  0  0  0  0  0  0  0
   -1.3925   -0.0690    3.6543 C   0  0  0  0  0  0  0  0  0  0  0  0
   -2.4615    0.1683    4.1736 O   0  0  0  0  0  0  0  0  0  0  0  0
   -0.2163   -0.5907    4.4310 C   0  0  0  0  0  0  0  0  0  0  0  0
   -0.4324   -1.2689    5.5762 C   0  0  0  0  0  0  0  0  0  0  0  0
    0.5518   -1.9869    6.3992 C   0  0  0  0  0  0  0  0  0  0  0  0
    1.4252   -2.9788    5.9031 C   0  0  0  0  0  0  0  0  0  0  0  0
    1.4016   -3.4344    4.2120 Cl  0  0  0  0  0  0  0  0  0  0  0  0
    2.3043   -3.6686    6.7368 C   0  0  0  0  0  0  0  0  0  0  0  0
    2.3325   -3.3808    8.1019 C   0  0  0  0  0  0  0  0  0  0  0  0
    1.4759   -2.4200    8.6364 C   0  0  0  0  0  0  0  0  0  0  0  0
    0.5968   -1.7478    7.7878 C   0  0  0  0  0  0  0  0  0  0  0  0
   -0.4677   -0.5424    8.4677 Cl  0  0  0  0  0  0  0  0  0  0  0  0
    1.1412   -0.3085    3.9086 C   0  0  0  0  0  0  0  0  0  0  0  0
    2.1512   -0.2936    4.5761 O   0  0  0  0  0  0  0  0  0  0  0  0
    3.4217    3.6252   -0.3790 H   0  0  0  0  0  0  0  0  0  0  0  0
    5.1568    3.4967    0.0029 H   0  0  0  0  0  0  0  0  0  0  0  0
    4.0111    4.1141    1.2194 H   0  0  0  0  0  0  0  0  0  0  0  0
    5.8483    1.2208    0.3165 H   0  0  0  0  0  0  0  0  0  0  0  0
    5.4579   -1.0734    1.1921 H   0  0  0  0  0  0  0  0  0  0  0  0
    3.2713   -1.6420    2.2884 H   0  0  0  0  0  0  0  0  0  0  0  0
    1.9102    2.3833    1.6339 H   0  0  0  0  0  0  0  0  0  0  0  0
    2.0258   -0.9342   -0.6406 Au  0  0  0  0  0  0  0  0  0  0  0  0
   -1.4720   -1.2907    5.9222 H   0  0  0  0  0  0  0  0  0  0  0  0
    2.9570   -4.4295    6.3088 H   0  0  0  0  0  0  0  0  0  0  0  0
    3.0250   -3.9162    8.7546 H   0  0  0  0  0  0  0  0  0  0  0  0
    1.4804   -2.1833    9.7006 H   0  0  0  0  0  0  0  0  0  0  0  0
  1  2  1  0  0  0  0
  1 28  1  0  0  0  0
  2  7  1  0  0  0  0
  3  2  2  0  0  0  0
  3  4  1  0  0  0  0
  4  5  2  0  0  0  0
  5  6  1  0  0  0  0
  5 31  1  0  0  0  0
  6  8  1  0  0  0  0
  7 32  1  0  0  0  0
  7  6  2  0  0  0  0
  8 24  1  0  0  0  0
  9 11  2  0  0  0  0
  9  8  1  0  0  0  0
 10  9  1  0  0  0  0
 11 12  2  0  0  0  0
 12 13  2  0  0  0  0
 12 14  1  0  0  0  0
 14 15  2  0  0  0  0
 15 34  1  0  0  0  0
 15 16  1  0  0  0  0
 16 22  1  0  0  0  0
 17 16  2  0  0  0  0
 17 19  1  0  0  0  0
 18 17  1  0  0  0  0
 19 20  2  0  0  0  0
 20 21  1  0  0  0  0
 20 36  1  0  0  0  0
 21 37  1  0  0  0  0
 22 23  1  0  0  0  0
 22 21  2  0  0  0  0
 24 14  1  0  0  0  0
 24 25  2  0  0  0  0
 26  1  1  0  0  0  0
 27  1  1  0  0  0  0
 29  3  1  0  0  0  0
 30  4  1  0  0  0  0
 33 10  1  0  0  0  0
 35 19  1  0  0  0  0
M  END
