000-762-907.xyz
 OpenBabel07262113353D
Clc1ccc(c(c1)c1ccc(o1)/C=C/1\C(=O)N=C(N(C1=O)C)S)Cl
 34 36  0  0  0  0  0  0  0  0999 V2000
    2.4750   -0.1127    1.5496 C   0  0  0  0  0  0  0  0  0  0  0  0
    1.2582   -0.0000    2.3525 N   0  0  0  0  0  0  0  0  0  0  0  0
    0.0000    0.0000    1.7731 C   0  0  0  0  0  0  0  0  0  0  0  0
    0.0000    0.0000    0.0000 S   0  0  0  0  0  0  0  0  0  0  0  0
   -1.1189   -0.0041    2.4223 N   0  0  0  0  0  0  0  0  0  0  0  0
   -1.1525   -0.0066    3.8171 C   0  0  0  0  0  0  0  0  0  0  0  0
   -2.1775   -0.2739    4.4113 O   0  0  0  0  0  0  0  0  0  0  0  0
    0.1320    0.3142    4.5027 C   0  0  0  0  0  0  0  0  0  0  0  0
    0.2850    0.6851    5.8121 C   0  0  0  0  0  0  0  0  0  0  0  0
   -0.6231    1.0367    6.8465 C   0  0  0  0  0  0  0  0  0  0  0  0
   -0.3266    1.3777    8.1646 C   0  0  0  0  0  0  0  0  0  0  0  0
   -1.5495    1.7004    8.7894 C   0  0  0  0  0  0  0  0  0  0  0  0
   -2.5307    1.5534    7.8161 C   0  0  0  0  0  0  0  0  0  0  0  0
   -1.9661    1.1539    6.6631 O   0  0  0  0  0  0  0  0  0  0  0  0
   -3.9770    1.7374    7.8865 C   0  0  0  0  0  0  0  0  0  0  0  0
   -4.5871    1.5952    9.1503 C   0  0  0  0  0  0  0  0  0  0  0  0
   -5.9568    1.7669    9.3119 C   0  0  0  0  0  0  0  0  0  0  0  0
   -6.6688    1.5749   10.8933 Cl  0  0  0  0  0  0  0  0  0  0  0  0
   -6.7687    2.0774    8.2167 C   0  0  0  0  0  0  0  0  0  0  0  0
   -6.1825    2.2234    6.9629 C   0  0  0  0  0  0  0  0  0  0  0  0
   -4.8033    2.0644    6.7857 C   0  0  0  0  0  0  0  0  0  0  0  0
   -4.1705    2.3283    5.1891 Cl  0  0  0  0  0  0  0  0  0  0  0  0
    1.4010    0.1782    3.7448 C   0  0  0  0  0  0  0  0  0  0  0  0
    2.5095    0.2327    4.2473 O   0  0  0  0  0  0  0  0  0  0  0  0
    2.5810    0.7539    0.8798 H   0  0  0  0  0  0  0  0  0  0  0  0
    2.4499   -1.0315    0.9467 H   0  0  0  0  0  0  0  0  0  0  0  0
    3.3208   -0.1422    2.2448 H   0  0  0  0  0  0  0  0  0  0  0  0
   -2.3147   -0.0415   -0.2246 Au  0  0  0  0  0  0  0  0  0  0  0  0
    1.3296    0.7682    6.1295 H   0  0  0  0  0  0  0  0  0  0  0  0
    0.6687    1.3956    8.6031 H   0  0  0  0  0  0  0  0  0  0  0  0
   -1.7019    2.0273    9.8144 H   0  0  0  0  0  0  0  0  0  0  0  0
   -3.9801    1.3205   10.0125 H   0  0  0  0  0  0  0  0  0  0  0  0
   -7.8439    2.2026    8.3485 H   0  0  0  0  0  0  0  0  0  0  0  0
   -6.7947    2.4744    6.0959 H   0  0  0  0  0  0  0  0  0  0  0  0
  1 27  1  0  0  0  0
  1  2  1  0  0  0  0
  2 23  1  0  0  0  0
  3  2  1  0  0  0  0
  3  5  2  0  0  0  0
  4  3  1  0  0  0  0
  5  6  2  0  0  0  0
  6  7  2  0  0  0  0
  6  8  1  0  0  0  0
  8  9  2  0  0  0  0
  9 29  1  0  0  0  0
  9 10  1  0  0  0  0
 10 11  2  0  0  0  0
 11 30  1  0  0  0  0
 11 12  1  0  0  0  0
 12 31  1  0  0  0  0
 13 15  1  0  0  0  0
 13 12  2  0  0  0  0
 14 10  1  0  0  0  0
 14 13  1  0  0  0  0
 15 16  2  0  0  0  0
 16 17  1  0  0  0  0
 16 32  1  0  0  0  0
 17 18  1  0  0  0  0
 19 33  1  0  0  0  0
 19 17  2  0  0  0  0
 20 19  1  0  0  0  0
 21 20  2  0  0  0  0
 21 15  1  0  0  0  0
 22 21  1  0  0  0  0
 23 24  2  0  0  0  0
 23  8  1  0  0  0  0
 25  1  1  0  0  0  0
 26  1  1  0  0  0  0
 28  4  1  0  0  0  0
 34 20  1  0  0  0  0
M  END
