000-802-085.xyz
 OpenBabel07262113363D
SC1=NC(=O)C2(C(=N1)O)Cc1c(N3C2c2ccccc2CC3)nc2n(c1=O)cccc2C
 51 56  0  0  1  0  0  0  0  0999 V2000
   -5.1400    2.4750    9.0217 C   0  0  0  0  0  0  0  0  0  0  0  0
   -4.6887    3.4423    7.9692 C   0  0  0  0  0  0  0  0  0  0  0  0
   -5.2767    4.6682    7.7696 C   0  0  0  0  0  0  0  0  0  0  0  0
   -4.8120    5.5499    6.7556 C   0  0  0  0  0  0  0  0  0  0  0  0
   -3.7632    5.1661    5.9738 C   0  0  0  0  0  0  0  0  0  0  0  0
   -3.1612    3.9459    6.1563 N   0  0  0  0  0  0  0  0  0  0  0  0
   -3.5830    3.0480    7.1297 C   0  0  0  0  0  0  0  0  0  0  0  0
   -3.0212    1.8685    7.2976 N   0  0  0  0  0  0  0  0  0  0  0  0
   -1.9767    1.5124    6.5124 C   0  0  0  0  0  0  0  0  0  0  0  0
   -1.4762    0.2576    6.7086 N   0  0  0  0  0  0  0  0  0  0  0  0
   -2.0438   -0.5494    7.7905 C   0  0  0  0  0  0  0  0  0  0  0  0
   -1.1196   -1.7066    8.1475 C   0  0  0  0  0  0  0  0  0  0  0  0
   -0.8660   -2.5379    6.9243 C   0  0  0  0  0  0  0  0  0  0  0  0
   -0.9497   -3.9327    6.9192 C   0  0  0  0  0  0  0  0  0  0  0  0
   -0.7253   -4.6536    5.7444 C   0  0  0  0  0  0  0  0  0  0  0  0
   -0.4185   -3.9695    4.5680 C   0  0  0  0  0  0  0  0  0  0  0  0
   -0.3402   -2.5741    4.5673 C   0  0  0  0  0  0  0  0  0  0  0  0
   -0.5708   -1.8417    5.7376 C   0  0  0  0  0  0  0  0  0  0  0  0
   -0.4301   -0.3257    5.8394 C   0  0  1  0  0  0  0  0  0  0  0  0
   -0.3188    0.3905    4.4726 C   0  0  2  0  0  0  0  0  0  0  0  0
   -0.2795    1.9334    4.7185 C   0  0  0  0  0  0  0  0  0  0  0  0
   -1.4424    2.3676    5.5403 C   0  0  1  0  0  0  0  0  0  0  0  0
   -2.0330    3.6280    5.2766 C   0  0  0  0  0  0  0  0  0  0  0  0
   -1.7055    4.4487    4.4291 O   0  0  0  0  0  0  0  0  0  0  0  0
   -1.4362    0.0871    3.5194 C   0  0  0  0  0  0  0  0  0  0  0  0
   -2.6473   -0.0142    4.0420 O   0  0  0  0  0  0  0  0  0  0  0  0
   -1.2920   -0.0365    2.2430 N   0  0  0  0  0  0  0  0  0  0  0  0
   -0.0000   -0.0000    1.7534 C   0  0  0  0  0  0  0  0  0  0  0  0
    0.0000    0.0000    0.0000 S   0  0  0  0  0  0  0  0  0  0  0  0
    1.1099    0.0000    2.4389 N   0  0  0  0  0  0  0  0  0  0  0  0
    1.0517    0.0677    3.8182 C   0  0  0  0  0  0  0  0  0  0  0  0
    2.0381   -0.0214    4.5185 O   0  0  0  0  0  0  0  0  0  0  0  0
   -4.3195    2.2508    9.7219 H   0  0  0  0  0  0  0  0  0  0  0  0
   -5.4220    1.5117    8.5685 H   0  0  0  0  0  0  0  0  0  0  0  0
   -5.9944    2.8739    9.5862 H   0  0  0  0  0  0  0  0  0  0  0  0
   -6.1158    4.9686    8.4021 H   0  0  0  0  0  0  0  0  0  0  0  0
   -5.2785    6.5225    6.5971 H   0  0  0  0  0  0  0  0  0  0  0  0
   -3.3176    5.7527    5.1711 H   0  0  0  0  0  0  0  0  0  0  0  0
   -2.2107    0.1053    8.6547 H   0  0  0  0  0  0  0  0  0  0  0  0
   -3.0337   -0.9403    7.4938 H   0  0  0  0  0  0  0  0  0  0  0  0
   -0.1686   -1.3058    8.5436 H   0  0  0  0  0  0  0  0  0  0  0  0
   -1.5745   -2.3071    8.9488 H   0  0  0  0  0  0  0  0  0  0  0  0
   -1.1920   -4.4566    7.8477 H   0  0  0  0  0  0  0  0  0  0  0  0
   -0.7896   -5.7441    5.7482 H   0  0  0  0  0  0  0  0  0  0  0  0
   -0.2351   -4.5177    3.6414 H   0  0  0  0  0  0  0  0  0  0  0  0
   -0.0817   -2.0816    3.6322 H   0  0  0  0  0  0  0  0  0  0  0  0
    0.5566   -0.1420    6.3007 H   0  0  0  0  0  0  0  0  0  0  0  0
   -0.2635    2.4825    3.7661 H   0  0  0  0  0  0  0  0  0  0  0  0
    0.6827    2.1317    5.2204 H   0  0  0  0  0  0  0  0  0  0  0  0
   -3.2605   -0.1832    3.3031 H   0  0  0  0  0  0  0  0  0  0  0  0
    2.2851    0.0571   -0.3504 Au  0  0  0  0  0  0  0  0  0  0  0  0
  1 35  1  0  0  0  0
  1 33  1  0  0  0  0
  2  1  1  0  0  0  0
  3  2  2  0  0  0  0
  3 36  1  0  0  0  0
  4  3  1  0  0  0  0
  5  6  1  0  0  0  0
  5  4  2  0  0  0  0
  6  7  1  0  0  0  0
  7  8  2  0  0  0  0
  7  2  1  0  0  0  0
  9 10  1  0  0  0  0
  9  8  2  0  0  0  0
 10 11  1  0  0  0  0
 11 12  1  0  0  0  0
 11 39  1  0  0  0  0
 12 41  1  0  0  0  0
 12 42  1  0  0  0  0
 13 12  1  0  0  0  0
 14 13  1  0  0  0  0
 14 43  1  0  0  0  0
 15 44  1  0  0  0  0
 15 14  2  0  0  0  0
 16 15  1  0  0  0  0
 17 16  2  0  0  0  0
 17 18  1  0  0  0  0
 18 19  1  0  0  0  0
 18 13  2  0  0  0  0
 19 20  1  6  0  0  0
 19 47  1  0  0  0  0
 19 10  1  0  0  0  0
 20 25  1  6  0  0  0
 20 21  1  0  0  0  0
 21 49  1  0  0  0  0
 21 22  1  0  0  0  0
 22 23  1  6  0  0  0
 22  9  1  0  0  0  0
 23  6  1  0  0  0  0
 24 23  2  0  0  0  0
 25 26  1  0  0  0  0
 27 25  2  0  0  0  0
 28 27  2  0  0  0  0
 28 30  2  0  0  0  0
 29 28  1  0  0  0  0
 30 31  2  0  0  0  0
 31 20  1  0  0  0  0
 31 32  2  0  0  0  0
 34  1  1  0  0  0  0
 37  4  1  0  0  0  0
 38  5  1  0  0  0  0
 40 11  1  0  0  0  0
 45 16  1  0  0  0  0
 46 17  1  0  0  0  0
 48 21  1  0  0  0  0
 50 26  1  0  0  0  0
 51 29  1  0  0  0  0
M  RAD  1  22   2
M  END
