000-698-165.xyz
 OpenBabel07262113333D
Cc1ccc(cc1)N1C(=NC(=O)/C(=C/c2cc(n(c2C)c2ccc(cc2)Cl)C)/C1=O)S
 51 54  0  0  0  0  0  0  0  0999 V2000
    4.2746    0.0068    8.9774 C   0  0  0  0  0  0  0  0  0  0  0  0
    2.9210    0.0192    8.3519 C   0  0  0  0  0  0  0  0  0  0  0  0
    2.5393    0.0137    7.0385 C   0  0  0  0  0  0  0  0  0  0  0  0
    1.0948    0.0064    6.9877 C   0  0  0  0  0  0  0  0  0  0  0  0
    0.1630    0.0031    5.9101 C   0  0  0  0  0  0  0  0  0  0  0  0
    0.2275    0.0012    4.5338 C   0  0  0  0  0  0  0  0  0  0  0  0
   -1.1016    0.0006    3.8355 C   0  0  0  0  0  0  0  0  0  0  0  0
   -2.1556    0.0006    4.4503 O   0  0  0  0  0  0  0  0  0  0  0  0
   -1.1061   -0.0000    2.4422 N   0  0  0  0  0  0  0  0  0  0  0  0
   -0.0000    0.0000    1.7747 C   0  0  0  0  0  0  0  0  0  0  0  0
    0.0000    0.0000    0.0000 S   0  0  0  0  0  0  0  0  0  0  0  0
    1.2641    0.0000    2.3338 N   0  0  0  0  0  0  0  0  0  0  0  0
    1.4594   -0.0003    3.7439 C   0  0  0  0  0  0  0  0  0  0  0  0
    2.6029   -0.0014    4.1622 O   0  0  0  0  0  0  0  0  0  0  0  0
    2.4374    0.0007    1.5011 C   0  0  0  0  0  0  0  0  0  0  0  0
    3.0098    1.2111    1.1045 C   0  0  0  0  0  0  0  0  0  0  0  0
    4.1428    1.2066    0.2932 C   0  0  0  0  0  0  0  0  0  0  0  0
    4.7254    0.0024   -0.1316 C   0  0  0  0  0  0  0  0  0  0  0  0
    5.9293    0.0034   -1.0383 C   0  0  0  0  0  0  0  0  0  0  0  0
    4.1420   -1.2028    0.2895 C   0  0  0  0  0  0  0  0  0  0  0  0
    3.0090   -1.2090    1.1008 C   0  0  0  0  0  0  0  0  0  0  0  0
    0.6451    0.0057    8.3298 C   0  0  0  0  0  0  0  0  0  0  0  0
   -0.7304    0.0140    8.9051 C   0  0  0  0  0  0  0  0  0  0  0  0
    1.7515    0.0131    9.1327 N   0  0  0  0  0  0  0  0  0  0  0  0
    1.7306    0.0127   10.5575 C   0  0  0  0  0  0  0  0  0  0  0  0
    1.9784    1.1964   11.2608 C   0  0  0  0  0  0  0  0  0  0  0  0
    1.9667    1.2004   12.6556 C   0  0  0  0  0  0  0  0  0  0  0  0
    1.6988    0.0121   13.3419 C   0  0  0  0  0  0  0  0  0  0  0  0
    1.6783    0.0118   15.0854 Cl  0  0  0  0  0  0  0  0  0  0  0  0
    1.4475   -1.1761   12.6491 C   0  0  0  0  0  0  0  0  0  0  0  0
    1.4687   -1.1716   11.2545 C   0  0  0  0  0  0  0  0  0  0  0  0
    4.4656    0.9088    9.5827 H   0  0  0  0  0  0  0  0  0  0  0  0
    4.4115   -0.8615    9.6439 H   0  0  0  0  0  0  0  0  0  0  0  0
    5.0387   -0.0418    8.1902 H   0  0  0  0  0  0  0  0  0  0  0  0
    3.1879    0.0095    6.1710 H   0  0  0  0  0  0  0  0  0  0  0  0
   -0.8845    0.0010    6.2289 H   0  0  0  0  0  0  0  0  0  0  0  0
   -2.3085   -0.0001   -0.2520 Au  0  0  0  0  0  0  0  0  0  0  0  0
    2.5596    2.1491    1.4337 H   0  0  0  0  0  0  0  0  0  0  0  0
    4.5859    2.1571   -0.0153 H   0  0  0  0  0  0  0  0  0  0  0  0
    6.5532   -0.8894   -0.8821 H   0  0  0  0  0  0  0  0  0  0  0  0
    5.6219    0.0068   -2.0987 H   0  0  0  0  0  0  0  0  0  0  0  0
    6.5553    0.8939   -0.8772 H   0  0  0  0  0  0  0  0  0  0  0  0
    4.5845   -2.1525   -0.0219 H   0  0  0  0  0  0  0  0  0  0  0  0
    2.5582   -2.1477    1.4272 H   0  0  0  0  0  0  0  0  0  0  0  0
   -1.4846    0.1386    8.1191 H   0  0  0  0  0  0  0  0  0  0  0  0
   -0.8527    0.8345    9.6307 H   0  0  0  0  0  0  0  0  0  0  0  0
   -0.9547   -0.9232    9.4413 H   0  0  0  0  0  0  0  0  0  0  0  0
    2.1761    2.1161   10.7072 H   0  0  0  0  0  0  0  0  0  0  0  0
    2.1582    2.1176   13.2136 H   0  0  0  0  0  0  0  0  0  0  0  0
    1.2435   -2.0936   13.2021 H   0  0  0  0  0  0  0  0  0  0  0  0
    1.2861   -2.0917   10.6964 H   0  0  0  0  0  0  0  0  0  0  0  0
  1 32  1  0  0  0  0
  1 33  1  0  0  0  0
  2  1  1  0  0  0  0
  2 24  1  0  0  0  0
  3  2  2  0  0  0  0
  4  3  1  0  0  0  0
  4 22  2  0  0  0  0
  5 36  1  0  0  0  0
  5  4  1  0  0  0  0
  6  5  2  0  0  0  0
  7  8  2  0  0  0  0
  7  6  1  0  0  0  0
  9  7  2  0  0  0  0
 10 12  1  0  0  0  0
 10  9  2  0  0  0  0
 11 10  1  0  0  0  0
 12 13  1  0  0  0  0
 13 14  2  0  0  0  0
 13  6  1  0  0  0  0
 15 12  1  0  0  0  0
 16 38  1  0  0  0  0
 16 15  1  0  0  0  0
 17 16  2  0  0  0  0
 18 20  2  0  0  0  0
 18 17  1  0  0  0  0
 19 40  1  0  0  0  0
 19 42  1  0  0  0  0
 19 18  1  0  0  0  0
 20 21  1  0  0  0  0
 21 44  1  0  0  0  0
 21 15  2  0  0  0  0
 22 23  1  0  0  0  0
 22 24  1  0  0  0  0
 23 47  1  0  0  0  0
 23 46  1  0  0  0  0
 24 25  1  0  0  0  0
 25 31  2  0  0  0  0
 25 26  1  0  0  0  0
 26 27  2  0  0  0  0
 27 49  1  0  0  0  0
 27 28  1  0  0  0  0
 28 29  1  0  0  0  0
 30 50  1  0  0  0  0
 30 28  2  0  0  0  0
 31 30  1  0  0  0  0
 34  1  1  0  0  0  0
 35  3  1  0  0  0  0
 37 11  1  0  0  0  0
 39 17  1  0  0  0  0
 41 19  1  0  0  0  0
 43 20  1  0  0  0  0
 45 23  1  0  0  0  0
 48 26  1  0  0  0  0
 51 31  1  0  0  0  0
M  END
