000-836-294.xyz
 OpenBabel07262113373D
SC1=NC(=O)/C(=C/c2cccn2c2ccc(cc2)Cl)/C(=N1)O
 32 34  0  0  0  0  0  0  0  0999 V2000
    2.6781   -0.0095    4.0139 O   0  0  0  0  0  0  0  0  0  0  0  0
    1.4271   -0.0173    3.5429 C   0  0  0  0  0  0  0  0  0  0  0  0
    1.2856   -0.0000    2.2489 N   0  0  0  0  0  0  0  0  0  0  0  0
    0.0000    0.0000    1.7636 C   0  0  0  0  0  0  0  0  0  0  0  0
    0.0000    0.0000    0.0000 S   0  0  0  0  0  0  0  0  0  0  0  0
   -1.1110    0.0016    2.4430 N   0  0  0  0  0  0  0  0  0  0  0  0
   -1.0527   -0.0041    3.8283 C   0  0  0  0  0  0  0  0  0  0  0  0
   -2.0637    0.0155    4.5120 O   0  0  0  0  0  0  0  0  0  0  0  0
    0.3199   -0.0322    4.4666 C   0  0  0  0  0  0  0  0  0  0  0  0
    0.3230   -0.0301    5.8441 C   0  0  0  0  0  0  0  0  0  0  0  0
    1.3020   -0.0629    6.8699 C   0  0  0  0  0  0  0  0  0  0  0  0
    2.6904   -0.2977    6.9134 C   0  0  0  0  0  0  0  0  0  0  0  0
    3.0930   -0.3274    8.2573 C   0  0  0  0  0  0  0  0  0  0  0  0
    1.9593   -0.0996    9.0342 C   0  0  0  0  0  0  0  0  0  0  0  0
    0.8850    0.0596    8.2150 N   0  0  0  0  0  0  0  0  0  0  0  0
   -0.4353    0.3218    8.6805 C   0  0  0  0  0  0  0  0  0  0  0  0
   -1.1209    1.4695    8.2641 C   0  0  0  0  0  0  0  0  0  0  0  0
   -2.4108    1.7198    8.7281 C   0  0  0  0  0  0  0  0  0  0  0  0
   -3.0044    0.8283    9.6266 C   0  0  0  0  0  0  0  0  0  0  0  0
   -4.6134    1.1434   10.2165 Cl  0  0  0  0  0  0  0  0  0  0  0  0
   -2.3235   -0.3142   10.0565 C   0  0  0  0  0  0  0  0  0  0  0  0
   -1.0405   -0.5692    9.5738 C   0  0  0  0  0  0  0  0  0  0  0  0
    3.2520    0.0172    3.2268 H   0  0  0  0  0  0  0  0  0  0  0  0
   -2.2855   -0.0053   -0.3416 Au  0  0  0  0  0  0  0  0  0  0  0  0
   -0.7100    0.0007    6.2108 H   0  0  0  0  0  0  0  0  0  0  0  0
    3.3078   -0.4493    6.0375 H   0  0  0  0  0  0  0  0  0  0  0  0
    4.1001   -0.4858    8.6361 H   0  0  0  0  0  0  0  0  0  0  0  0
    1.8475   -0.0072   10.1123 H   0  0  0  0  0  0  0  0  0  0  0  0
   -0.6424    2.1673    7.5757 H   0  0  0  0  0  0  0  0  0  0  0  0
   -2.9560    2.6055    8.4010 H   0  0  0  0  0  0  0  0  0  0  0  0
   -2.8048   -1.0039   10.7506 H   0  0  0  0  0  0  0  0  0  0  0  0
   -0.5078   -1.4719    9.8782 H   0  0  0  0  0  0  0  0  0  0  0  0
  2  1  1  0  0  0  0
  2  9  1  0  0  0  0
  3  2  2  0  0  0  0
  4  3  2  0  0  0  0
  4  6  2  0  0  0  0
  5  4  1  0  0  0  0
  6  7  2  0  0  0  0
  7  9  1  0  0  0  0
  7  8  2  0  0  0  0
  9 10  2  0  0  0  0
 10 25  1  0  0  0  0
 10 11  1  0  0  0  0
 11 12  2  0  0  0  0
 11 15  1  0  0  0  0
 12 13  1  0  0  0  0
 13 27  1  0  0  0  0
 13 14  2  0  0  0  0
 14 28  1  0  0  0  0
 15 16  1  0  0  0  0
 15 14  1  0  0  0  0
 16 22  1  0  0  0  0
 17 16  2  0  0  0  0
 17 18  1  0  0  0  0
 18 19  2  0  0  0  0
 19 21  1  0  0  0  0
 19 20  1  0  0  0  0
 21 31  1  0  0  0  0
 22 32  1  0  0  0  0
 22 21  2  0  0  0  0
 23  1  1  0  0  0  0
 24  5  1  0  0  0  0
 26 12  1  0  0  0  0
 29 17  1  0  0  0  0
 30 18  1  0  0  0  0
M  END
