000-755-320.xyz
 OpenBabel07262113353D
SC1=N/C(=C\c2cc3ccccc3[nH]c2=O)/C(=N1)O
 28 30  0  0  0  0  0  0  0  0999 V2000
    1.6046   -0.0001    4.7498 O   0  0  0  0  0  0  0  0  0  0  0  0
    0.7785   -0.0000    3.7118 C   0  0  0  0  0  0  0  0  0  0  0  0
    1.1969    0.0000    2.4803 N   0  0  0  0  0  0  0  0  0  0  0  0
    0.0000   -0.0000    1.7426 C   0  0  0  0  0  0  0  0  0  0  0  0
    0.0000    0.0000    0.0000 S   0  0  0  0  0  0  0  0  0  0  0  0
   -1.1217   -0.0000    2.4280 N   0  0  0  0  0  0  0  0  0  0  0  0
   -0.7076   -0.0001    3.7510 C   0  0  0  0  0  0  0  0  0  0  0  0
   -1.4700   -0.0005    4.8814 C   0  0  0  0  0  0  0  0  0  0  0  0
   -2.9081   -0.0011    4.9814 C   0  0  0  0  0  0  0  0  0  0  0  0
   -3.7664   -0.0011    3.9045 C   0  0  0  0  0  0  0  0  0  0  0  0
   -5.1863   -0.0021    4.0691 C   0  0  0  0  0  0  0  0  0  0  0  0
   -6.0835   -0.0022    2.9774 C   0  0  0  0  0  0  0  0  0  0  0  0
   -7.4547   -0.0034    3.1827 C   0  0  0  0  0  0  0  0  0  0  0  0
   -7.9621   -0.0047    4.4954 C   0  0  0  0  0  0  0  0  0  0  0  0
   -7.1062   -0.0046    5.5907 C   0  0  0  0  0  0  0  0  0  0  0  0
   -5.7157   -0.0033    5.3883 C   0  0  0  0  0  0  0  0  0  0  0  0
   -4.8319   -0.0032    6.4449 N   0  0  0  0  0  0  0  0  0  0  0  0
   -3.4454   -0.0021    6.3622 C   0  0  0  0  0  0  0  0  0  0  0  0
   -2.7610   -0.0021    7.3753 O   0  0  0  0  0  0  0  0  0  0  0  0
    1.0974   -0.0001    5.5748 H   0  0  0  0  0  0  0  0  0  0  0  0
    2.2819   -0.0006   -0.3623 Au  0  0  0  0  0  0  0  0  0  0  0  0
   -0.9676   -0.0006    5.8544 H   0  0  0  0  0  0  0  0  0  0  0  0
   -3.3357   -0.0003    2.9003 H   0  0  0  0  0  0  0  0  0  0  0  0
   -5.6704   -0.0013    1.9661 H   0  0  0  0  0  0  0  0  0  0  0  0
   -8.1393   -0.0035    2.3325 H   0  0  0  0  0  0  0  0  0  0  0  0
   -9.0420   -0.0057    4.6603 H   0  0  0  0  0  0  0  0  0  0  0  0
   -7.5041   -0.0055    6.6084 H   0  0  0  0  0  0  0  0  0  0  0  0
   -5.1940   -0.0040    7.3944 H   0  0  0  0  0  0  0  0  0  0  0  0
  1 20  1  0  0  0  0
  2  7  1  0  0  0  0
  2  1  1  0  0  0  0
  3  2  2  0  0  0  0
  4  6  2  0  0  0  0
  4  3  2  0  0  0  0
  5  4  1  0  0  0  0
  6  7  2  0  0  0  0
  7  8  1  0  0  0  0
  8  9  2  0  0  0  0
  8 22  1  0  0  0  0
  9 18  1  0  0  0  0
 10 11  1  0  0  0  0
 10  9  1  0  0  0  0
 11 16  2  0  0  0  0
 12 13  2  0  0  0  0
 12 11  1  0  0  0  0
 13 14  1  0  0  0  0
 14 26  1  0  0  0  0
 14 15  2  0  0  0  0
 15 27  1  0  0  0  0
 16 15  1  0  0  0  0
 16 17  1  0  0  0  0
 17 28  1  0  0  0  0
 18 17  1  0  0  0  0
 18 19  2  0  0  0  0
 21  5  1  0  0  0  0
 23 10  1  0  0  0  0
 24 12  1  0  0  0  0
 25 13  1  0  0  0  0
M  RAD  1  10   2
M  END
