000-847-776.xyz
 OpenBabel07262113383D
SC1=NC(=O)/C(=C/c2ccc(o2)N2CCCC2)/C(=N1)O
 33 35  0  0  0  0  0  0  0  0999 V2000
    2.6628    0.0007    4.0339 O   0  0  0  0  0  0  0  0  0  0  0  0
    1.4091    0.0004    3.5550 C   0  0  0  0  0  0  0  0  0  0  0  0
    1.2810    0.0000    2.2559 N   0  0  0  0  0  0  0  0  0  0  0  0
   -0.0000   -0.0000    1.7690 C   0  0  0  0  0  0  0  0  0  0  0  0
    0.0000    0.0000    0.0000 S   0  0  0  0  0  0  0  0  0  0  0  0
   -1.1140   -0.0001    2.4444 N   0  0  0  0  0  0  0  0  0  0  0  0
   -1.0623    0.0000    3.8327 C   0  0  0  0  0  0  0  0  0  0  0  0
   -2.0779   -0.0004    4.5117 O   0  0  0  0  0  0  0  0  0  0  0  0
    0.3043    0.0009    4.4666 C   0  0  0  0  0  0  0  0  0  0  0  0
    0.3226    0.0027    5.8529 C   0  0  0  0  0  0  0  0  0  0  0  0
    1.3112    0.0033    6.8425 C   0  0  0  0  0  0  0  0  0  0  0  0
    2.7063   -0.0019    6.9480 C   0  0  0  0  0  0  0  0  0  0  0  0
    3.0502    0.0000    8.3060 C   0  0  0  0  0  0  0  0  0  0  0  0
    1.8325    0.0076    9.0060 C   0  0  0  0  0  0  0  0  0  0  0  0
    0.8032    0.0094    8.1578 O   0  0  0  0  0  0  0  0  0  0  0  0
    1.5601    0.0123   10.3174 N   0  0  0  0  0  0  0  0  0  0  0  0
    2.6018    0.0209   11.3427 C   0  0  0  0  0  0  0  0  0  0  0  0
    1.8128    0.2666   12.6349 C   0  0  0  0  0  0  0  0  0  0  0  0
    0.4462   -0.3698   12.3425 C   0  0  0  0  0  0  0  0  0  0  0  0
    0.2025   -0.0236   10.8699 C   0  0  0  0  0  0  0  0  0  0  0  0
    3.2350    0.0011    3.2454 H   0  0  0  0  0  0  0  0  0  0  0  0
   -2.2867    0.0018   -0.3308 Au  0  0  0  0  0  0  0  0  0  0  0  0
   -0.6959    0.0042    6.2610 H   0  0  0  0  0  0  0  0  0  0  0  0
    3.3768   -0.0091    6.0972 H   0  0  0  0  0  0  0  0  0  0  0  0
    4.0446   -0.0095    8.7424 H   0  0  0  0  0  0  0  0  0  0  0  0
    3.1335   -0.9488   11.3631 H   0  0  0  0  0  0  0  0  0  0  0  0
    3.3479    0.8063   11.1392 H   0  0  0  0  0  0  0  0  0  0  0  0
    1.6979    1.3499   12.8021 H   0  0  0  0  0  0  0  0  0  0  0  0
    2.3124   -0.1572   13.5173 H   0  0  0  0  0  0  0  0  0  0  0  0
    0.5030   -1.4637   12.4656 H   0  0  0  0  0  0  0  0  0  0  0  0
   -0.3545    0.0002   12.9981 H   0  0  0  0  0  0  0  0  0  0  0  0
   -0.4141   -0.7633   10.3383 H   0  0  0  0  0  0  0  0  0  0  0  0
   -0.2876    0.9600   10.7530 H   0  0  0  0  0  0  0  0  0  0  0  0
  2  1  1  0  0  0  0
  2  9  1  0  0  0  0
  3  2  2  0  0  0  0
  4  3  2  0  0  0  0
  4  6  2  0  0  0  0
  5  4  1  0  0  0  0
  6  7  2  0  0  0  0
  7  9  1  0  0  0  0
  7  8  2  0  0  0  0
  9 10  2  0  0  0  0
 10 23  1  0  0  0  0
 10 11  1  0  0  0  0
 11 12  2  0  0  0  0
 11 15  1  0  0  0  0
 12 13  1  0  0  0  0
 13 25  1  0  0  0  0
 13 14  2  0  0  0  0
 14 16  1  0  0  0  0
 15 14  1  0  0  0  0
 16 20  1  0  0  0  0
 16 17  1  0  0  0  0
 17 26  1  0  0  0  0
 17 18  1  0  0  0  0
 18 28  1  0  0  0  0
 18 29  1  0  0  0  0
 19 30  1  0  0  0  0
 19 18  1  0  0  0  0
 19 31  1  0  0  0  0
 20 19  1  0  0  0  0
 21  1  1  0  0  0  0
 22  5  1  0  0  0  0
 24 12  1  0  0  0  0
 27 17  1  0  0  0  0
 32 20  1  0  0  0  0
 33 20  1  0  0  0  0
M  END
