000-780-659.xyz
 OpenBabel07262113363D
COc1ccc(cc1)/C=C\1/C(=NC(=NC1=O)S)O
 28 29  0  0  0  0  0  0  0  0999 V2000
    4.5463    2.9396    9.8550 C   0  0  0  0  0  0  0  0  0  0  0  0
    3.1666    3.2192    9.7108 O   0  0  0  0  0  0  0  0  0  0  0  0
    2.4789    2.6593    8.7011 C   0  0  0  0  0  0  0  0  0  0  0  0
    1.1111    2.9944    8.6221 C   0  0  0  0  0  0  0  0  0  0  0  0
    0.3307    2.4610    7.6160 C   0  0  0  0  0  0  0  0  0  0  0  0
    0.8684    1.5822    6.6348 C   0  0  0  0  0  0  0  0  0  0  0  0
   -0.0513    1.1068    5.6270 C   0  0  0  0  0  0  0  0  0  0  0  0
    0.0472    0.4435    4.4253 C   0  0  0  0  0  0  0  0  0  0  0  0
   -1.1899    0.1688    3.6814 C   0  0  0  0  0  0  0  0  0  0  0  0
   -2.3684    0.1173    4.3184 O   0  0  0  0  0  0  0  0  0  0  0  0
   -1.2202   -0.0340    2.4037 N   0  0  0  0  0  0  0  0  0  0  0  0
    0.0000   -0.0000    1.7624 C   0  0  0  0  0  0  0  0  0  0  0  0
    0.0000    0.0000    0.0000 S   0  0  0  0  0  0  0  0  0  0  0  0
    1.1800   -0.0000    2.3035 N   0  0  0  0  0  0  0  0  0  0  0  0
    1.3002    0.0710    3.6791 C   0  0  0  0  0  0  0  0  0  0  0  0
    2.3698   -0.1317    4.2323 O   0  0  0  0  0  0  0  0  0  0  0  0
    2.2379    1.2462    6.7429 C   0  0  0  0  0  0  0  0  0  0  0  0
    3.0299    1.7762    7.7551 C   0  0  0  0  0  0  0  0  0  0  0  0
    4.8876    3.5090   10.7286 H   0  0  0  0  0  0  0  0  0  0  0  0
    4.7247    1.8649   10.0305 H   0  0  0  0  0  0  0  0  0  0  0  0
    5.1181    3.2593    8.9671 H   0  0  0  0  0  0  0  0  0  0  0  0
    0.6990    3.6746    9.3690 H   0  0  0  0  0  0  0  0  0  0  0  0
   -0.7276    2.7310    7.5659 H   0  0  0  0  0  0  0  0  0  0  0  0
   -1.0748    1.4193    5.8726 H   0  0  0  0  0  0  0  0  0  0  0  0
   -2.2201    0.0689    5.2729 H   0  0  0  0  0  0  0  0  0  0  0  0
   -2.2563   -0.0507   -0.4689 Au  0  0  0  0  0  0  0  0  0  0  0  0
    2.6602    0.5575    6.0132 H   0  0  0  0  0  0  0  0  0  0  0  0
    4.0796    1.4887    7.8044 H   0  0  0  0  0  0  0  0  0  0  0  0
  1 20  1  0  0  0  0
  1 19  1  0  0  0  0
  2  1  1  0  0  0  0
  3  2  1  0  0  0  0
  4  3  1  0  0  0  0
  4 22  1  0  0  0  0
  5  4  2  0  0  0  0
  6 17  2  0  0  0  0
  6  5  1  0  0  0  0
  7 24  1  0  0  0  0
  7  6  1  0  0  0  0
  8  7  2  0  0  0  0
  9 10  1  0  0  0  0
  9  8  1  0  0  0  0
 10 25  1  0  0  0  0
 11  9  2  0  0  0  0
 12 14  2  0  0  0  0
 12 11  2  0  0  0  0
 13 12  1  0  0  0  0
 14 15  2  0  0  0  0
 15 16  2  0  0  0  0
 15  8  1  0  0  0  0
 17 18  1  0  0  0  0
 18 28  1  0  0  0  0
 18  3  2  0  0  0  0
 21  1  1  0  0  0  0
 23  5  1  0  0  0  0
 26 13  1  0  0  0  0
 27 17  1  0  0  0  0
M  END
