000-774-037.xyz
 OpenBabel07262113363D
CN(c1ccc(cc1)n1c(C)cc(c1C)/C=C\1/C(=O)N=C(N(C1=O)C)S)C
 49 51  0  0  0  0  0  0  0  0999 V2000
    1.1714   -1.2194   15.5470 C   0  0  0  0  0  0  0  0  0  0  0  0
    1.2484    0.0307   14.8220 N   0  0  0  0  0  0  0  0  0  0  0  0
    1.2547    1.2856   15.5428 C   0  0  0  0  0  0  0  0  0  0  0  0
    1.3144    0.0262   13.4460 C   0  0  0  0  0  0  0  0  0  0  0  0
    1.3116   -1.1873   12.7117 C   0  0  0  0  0  0  0  0  0  0  0  0
    1.3788   -1.1838   11.3222 C   0  0  0  0  0  0  0  0  0  0  0  0
    1.4486    0.0171   10.6103 C   0  0  0  0  0  0  0  0  0  0  0  0
    1.4536    1.2225   11.3180 C   0  0  0  0  0  0  0  0  0  0  0  0
    1.3883    1.2350   12.7076 C   0  0  0  0  0  0  0  0  0  0  0  0
    1.5205    0.0127    9.1844 N   0  0  0  0  0  0  0  0  0  0  0  0
    2.7159    0.0095    8.4455 C   0  0  0  0  0  0  0  0  0  0  0  0
    4.0422    0.0078    9.1261 C   0  0  0  0  0  0  0  0  0  0  0  0
    2.3846    0.0057    7.1186 C   0  0  0  0  0  0  0  0  0  0  0  0
    0.9420    0.0063    7.0153 C   0  0  0  0  0  0  0  0  0  0  0  0
    0.0464    0.0038    5.9113 C   0  0  0  0  0  0  0  0  0  0  0  0
    0.1445    0.0013    4.5341 C   0  0  0  0  0  0  0  0  0  0  0  0
   -1.1640    0.0003    3.8072 C   0  0  0  0  0  0  0  0  0  0  0  0
   -2.2369    0.0000    4.3907 O   0  0  0  0  0  0  0  0  0  0  0  0
   -1.1272   -0.0000    2.4161 N   0  0  0  0  0  0  0  0  0  0  0  0
    0.0000   -0.0000    1.7766 C   0  0  0  0  0  0  0  0  0  0  0  0
    0.0000    0.0000    0.0000 S   0  0  0  0  0  0  0  0  0  0  0  0
    1.2482   -0.0000    2.3588 N   0  0  0  0  0  0  0  0  0  0  0  0
    2.4653   -0.0003    1.5505 C   0  0  0  0  0  0  0  0  0  0  0  0
    1.3941    0.0002    3.7766 C   0  0  0  0  0  0  0  0  0  0  0  0
    2.5211   -0.0003    4.2456 O   0  0  0  0  0  0  0  0  0  0  0  0
    0.4468    0.0109    8.3445 C   0  0  0  0  0  0  0  0  0  0  0  0
   -0.9458    0.0159    8.8758 C   0  0  0  0  0  0  0  0  0  0  0  0
    2.0528   -1.8614   15.3648 H   0  0  0  0  0  0  0  0  0  0  0  0
    1.1242   -1.0135   16.6234 H   0  0  0  0  0  0  0  0  0  0  0  0
    0.2725   -1.8031   15.2756 H   0  0  0  0  0  0  0  0  0  0  0  0
    1.1978    1.0868   16.6201 H   0  0  0  0  0  0  0  0  0  0  0  0
    0.3949    1.9257   15.2721 H   0  0  0  0  0  0  0  0  0  0  0  0
    2.1755    1.8682   15.3556 H   0  0  0  0  0  0  0  0  0  0  0  0
    1.2576   -2.1442   13.2275 H   0  0  0  0  0  0  0  0  0  0  0  0
    1.3778   -2.1285   10.7741 H   0  0  0  0  0  0  0  0  0  0  0  0
    1.5094    2.1636   10.7665 H   0  0  0  0  0  0  0  0  0  0  0  0
    1.3941    2.1951   13.2201 H   0  0  0  0  0  0  0  0  0  0  0  0
    4.1787    0.8960    9.7655 H   0  0  0  0  0  0  0  0  0  0  0  0
    4.8416   -0.0001    8.3730 H   0  0  0  0  0  0  0  0  0  0  0  0
    4.1700   -0.8744    9.7755 H   0  0  0  0  0  0  0  0  0  0  0  0
    3.0648    0.0020    6.2761 H   0  0  0  0  0  0  0  0  0  0  0  0
   -1.0098    0.0041    6.1999 H   0  0  0  0  0  0  0  0  0  0  0  0
   -2.3191    0.0016   -0.2022 Au  0  0  0  0  0  0  0  0  0  0  0  0
    2.5055   -0.8963    0.9133 H   0  0  0  0  0  0  0  0  0  0  0  0
    3.3135    0.0006    2.2430 H   0  0  0  0  0  0  0  0  0  0  0  0
    2.5048    0.8946    0.9118 H   0  0  0  0  0  0  0  0  0  0  0  0
   -1.6810    0.0282    8.0624 H   0  0  0  0  0  0  0  0  0  0  0  0
   -1.1246    0.8962    9.5147 H   0  0  0  0  0  0  0  0  0  0  0  0
   -1.1386   -0.8722    9.4996 H   0  0  0  0  0  0  0  0  0  0  0  0
  1 29  1  0  0  0  0
  2  3  1  0  0  0  0
  2  1  1  0  0  0  0
  3 31  1  0  0  0  0
  4  2  1  0  0  0  0
  5 34  1  0  0  0  0
  5  4  1  0  0  0  0
  6  5  2  0  0  0  0
  7  8  2  0  0  0  0
  7  6  1  0  0  0  0
  8  9  1  0  0  0  0
  9 37  1  0  0  0  0
  9  4  2  0  0  0  0
 10  7  1  0  0  0  0
 11 12  1  0  0  0  0
 11 10  1  0  0  0  0
 12 38  1  0  0  0  0
 12 40  1  0  0  0  0
 13 11  2  0  0  0  0
 14 13  1  0  0  0  0
 14 26  2  0  0  0  0
 15 42  1  0  0  0  0
 15 14  1  0  0  0  0
 16 15  2  0  0  0  0
 17 18  2  0  0  0  0
 17 16  1  0  0  0  0
 19 17  2  0  0  0  0
 20 22  1  0  0  0  0
 20 19  2  0  0  0  0
 21 20  1  0  0  0  0
 22 24  1  0  0  0  0
 23 45  1  0  0  0  0
 23 22  1  0  0  0  0
 24 25  2  0  0  0  0
 24 16  1  0  0  0  0
 26 27  1  0  0  0  0
 26 10  1  0  0  0  0
 27 49  1  0  0  0  0
 27 48  1  0  0  0  0
 28  1  1  0  0  0  0
 30  1  1  0  0  0  0
 32  3  1  0  0  0  0
 33  3  1  0  0  0  0
 35  6  1  0  0  0  0
 36  8  1  0  0  0  0
 39 12  1  0  0  0  0
 41 13  1  0  0  0  0
 43 21  1  0  0  0  0
 44 23  1  0  0  0  0
 46 23  1  0  0  0  0
 47 27  1  0  0  0  0
M  END
