000-847-742.xyz
 OpenBabel07262113383D
O=C1N=C(S)N(C(=O)/C/1=C/c1ccc(o1)N1CCOCC1)c1ccccc1F
 44 47  0  0  0  0  0  0  0  0999 V2000
    2.4905   -2.3773    1.7518 F   0  0  0  0  0  0  0  0  0  0  0  0
    3.0381   -1.2705    1.2459 C   0  0  0  0  0  0  0  0  0  0  0  0
    4.1799   -1.3576    0.4580 C   0  0  0  0  0  0  0  0  0  0  0  0
    4.7329   -0.1851   -0.0635 C   0  0  0  0  0  0  0  0  0  0  0  0
    4.1499    1.0568    0.2066 C   0  0  0  0  0  0  0  0  0  0  0  0
    3.0064    1.1287    1.0031 C   0  0  0  0  0  0  0  0  0  0  0  0
    2.4374   -0.0374    1.5192 C   0  0  0  0  0  0  0  0  0  0  0  0
    1.2644    0.0000    2.3363 N   0  0  0  0  0  0  0  0  0  0  0  0
    0.0000    0.0000    1.7750 C   0  0  0  0  0  0  0  0  0  0  0  0
    0.0000    0.0000    0.0000 S   0  0  0  0  0  0  0  0  0  0  0  0
   -1.1020    0.0018    2.4469 N   0  0  0  0  0  0  0  0  0  0  0  0
   -1.1019   -0.0156    3.8440 C   0  0  0  0  0  0  0  0  0  0  0  0
   -2.1689    0.0084    4.4447 O   0  0  0  0  0  0  0  0  0  0  0  0
    0.2031   -0.0709    4.5269 C   0  0  0  0  0  0  0  0  0  0  0  0
    0.3868   -0.1253    5.8992 C   0  0  0  0  0  0  0  0  0  0  0  0
   -0.4849   -0.1399    6.9950 C   0  0  0  0  0  0  0  0  0  0  0  0
   -1.8577   -0.1116    7.2527 C   0  0  0  0  0  0  0  0  0  0  0  0
   -2.0436   -0.1657    8.6428 C   0  0  0  0  0  0  0  0  0  0  0  0
   -0.7600   -0.2166    9.2028 C   0  0  0  0  0  0  0  0  0  0  0  0
    0.1671   -0.2085    8.2438 O   0  0  0  0  0  0  0  0  0  0  0  0
   -0.3312   -0.2455   10.4867 N   0  0  0  0  0  0  0  0  0  0  0  0
    1.0515   -0.5892   10.8141 C   0  0  0  0  0  0  0  0  0  0  0  0
    1.4580    0.1142   12.1036 C   0  0  0  0  0  0  0  0  0  0  0  0
    0.5474   -0.1632   13.1470 O   0  0  0  0  0  0  0  0  0  0  0  0
   -0.7511    0.2831   12.8288 C   0  0  0  0  0  0  0  0  0  0  0  0
   -1.2869   -0.4039   11.5749 C   0  0  0  0  0  0  0  0  0  0  0  0
    1.4468   -0.0735    3.7438 C   0  0  0  0  0  0  0  0  0  0  0  0
    2.5777   -0.1233    4.1913 O   0  0  0  0  0  0  0  0  0  0  0  0
    4.6170   -2.3388    0.2657 H   0  0  0  0  0  0  0  0  0  0  0  0
    5.6293   -0.2452   -0.6848 H   0  0  0  0  0  0  0  0  0  0  0  0
    4.5879    1.9700   -0.2004 H   0  0  0  0  0  0  0  0  0  0  0  0
    2.5332    2.0851    1.2302 H   0  0  0  0  0  0  0  0  0  0  0  0
   -2.3082   -0.0427   -0.2479 Au  0  0  0  0  0  0  0  0  0  0  0  0
    1.4418   -0.1665    6.1911 H   0  0  0  0  0  0  0  0  0  0  0  0
   -2.6017   -0.0621    6.4648 H   0  0  0  0  0  0  0  0  0  0  0  0
   -2.9882   -0.1742    9.1777 H   0  0  0  0  0  0  0  0  0  0  0  0
    1.7038   -0.2880    9.9855 H   0  0  0  0  0  0  0  0  0  0  0  0
    1.1442   -1.6850   10.9454 H   0  0  0  0  0  0  0  0  0  0  0  0
    1.5162    1.2070   11.9248 H   0  0  0  0  0  0  0  0  0  0  0  0
    2.4465   -0.2386   12.4314 H   0  0  0  0  0  0  0  0  0  0  0  0
   -0.7533    1.3811   12.6710 H   0  0  0  0  0  0  0  0  0  0  0  0
   -1.3965    0.0539   13.6894 H   0  0  0  0  0  0  0  0  0  0  0  0
   -1.4596   -1.4784   11.7802 H   0  0  0  0  0  0  0  0  0  0  0  0
   -2.2463    0.0486   11.2898 H   0  0  0  0  0  0  0  0  0  0  0  0
  2  7  1  0  0  0  0
  2  1  1  0  0  0  0
  3  2  2  0  0  0  0
  4  5  2  0  0  0  0
  4  3  1  0  0  0  0
  5  6  1  0  0  0  0
  6 32  1  0  0  0  0
  6  7  2  0  0  0  0
  7  8  1  0  0  0  0
  8 27  1  0  0  0  0
  9  8  1  0  0  0  0
  9 11  2  0  0  0  0
 10  9  1  0  0  0  0
 11 12  2  0  0  0  0
 12 13  2  0  0  0  0
 12 14  1  0  0  0  0
 14 15  2  0  0  0  0
 15 34  1  0  0  0  0
 15 16  1  0  0  0  0
 16 17  2  0  0  0  0
 16 20  1  0  0  0  0
 17 18  1  0  0  0  0
 18 36  1  0  0  0  0
 18 19  2  0  0  0  0
 19 21  1  0  0  0  0
 20 19  1  0  0  0  0
 21 22  1  0  0  0  0
 21 26  1  0  0  0  0
 22 38  1  0  0  0  0
 22 23  1  0  0  0  0
 23 40  1  0  0  0  0
 23 24  1  0  0  0  0
 25 24  1  0  0  0  0
 25 42  1  0  0  0  0
 26 43  1  0  0  0  0
 26 25  1  0  0  0  0
 27 28  2  0  0  0  0
 27 14  1  0  0  0  0
 29  3  1  0  0  0  0
 30  4  1  0  0  0  0
 31  5  1  0  0  0  0
 33 10  1  0  0  0  0
 35 17  1  0  0  0  0
 37 22  1  0  0  0  0
 39 23  1  0  0  0  0
 41 25  1  0  0  0  0
 44 26  1  0  0  0  0
M  END
