000-752-496.xyz
 OpenBabel07262113353D
SC1=NC(=O)/C(=C/c2cccs2)/S1
 18 19  0  0  0  0  0  0  0  0999 V2000
    0.0000    0.0000    0.0000 S   0  0  0  0  0  0  0  0  0  0  0  0
    0.0000   -0.0000    1.7375 C   0  0  0  0  0  0  0  0  0  0  0  0
   -1.0283    0.0001    2.5112 N   0  0  0  0  0  0  0  0  0  0  0  0
   -0.6867    0.0002    3.8773 C   0  0  0  0  0  0  0  0  0  0  0  0
   -1.4867    0.0002    4.7838 O   0  0  0  0  0  0  0  0  0  0  0  0
    0.8105    0.0004    4.0742 C   0  0  0  0  0  0  0  0  0  0  0  0
    1.6224    0.0000    2.5137 S   0  0  0  0  0  0  0  0  0  0  0  0
    1.3572    0.0013    5.3136 C   0  0  0  0  0  0  0  0  0  0  0  0
    2.7428    0.0024    5.6967 C   0  0  0  0  0  0  0  0  0  0  0  0
    3.9026    0.0028    4.9307 C   0  0  0  0  0  0  0  0  0  0  0  0
    5.0871    0.0043    5.7109 C   0  0  0  0  0  0  0  0  0  0  0  0
    4.8338    0.0049    7.0650 C   0  0  0  0  0  0  0  0  0  0  0  0
    3.1461    0.0037    7.4016 S   0  0  0  0  0  0  0  0  0  0  0  0
   -2.2995    0.0041   -0.3060 Au  0  0  0  0  0  0  0  0  0  0  0  0
    0.6097    0.0016    6.1149 H   0  0  0  0  0  0  0  0  0  0  0  0
    3.9022    0.0022    3.8413 H   0  0  0  0  0  0  0  0  0  0  0  0
    6.0931    0.0049    5.2896 H   0  0  0  0  0  0  0  0  0  0  0  0
    5.5555    0.0059    7.8804 H   0  0  0  0  0  0  0  0  0  0  0  0
  1  2  1  0  0  0  0
  2  3  2  0  0  0  0
  2  7  1  0  0  0  0
  3  4  2  0  0  0  0
  4  6  1  0  0  0  0
  4  5  2  0  0  0  0
  6  8  2  0  0  0  0
  7  6  1  0  0  0  0
  8  9  1  0  0  0  0
  8 15  1  0  0  0  0
  9 13  1  0  0  0  0
 10  9  2  0  0  0  0
 10 11  1  0  0  0  0
 11 12  2  0  0  0  0
 12 13  1  0  0  0  0
 12 18  1  0  0  0  0
 14  1  1  0  0  0  0
 16 10  1  0  0  0  0
 17 11  1  0  0  0  0
M  END
