000-786-562.xyz
 OpenBabel07262113363D
SC1=NC(=O)/C(=C\c2ccc3c(c2)CCCN3Cc2ccccc2)/C(=N1)O
 46 49  0  0  0  0  0  0  0  0999 V2000
   -2.6342   -0.0018    4.0562 O   0  0  0  0  0  0  0  0  0  0  0  0
   -1.3923   -0.0015    3.5554 C   0  0  0  0  0  0  0  0  0  0  0  0
   -1.2785    0.0002    2.2583 N   0  0  0  0  0  0  0  0  0  0  0  0
    0.0000    0.0000    1.7664 C   0  0  0  0  0  0  0  0  0  0  0  0
    0.0000    0.0000    0.0000 S   0  0  0  0  0  0  0  0  0  0  0  0
    1.1116    0.0000    2.4440 N   0  0  0  0  0  0  0  0  0  0  0  0
    1.0756    0.0002    3.8320 C   0  0  0  0  0  0  0  0  0  0  0  0
    2.1252    0.0027    4.4636 O   0  0  0  0  0  0  0  0  0  0  0  0
   -0.2734   -0.0029    4.4828 C   0  0  0  0  0  0  0  0  0  0  0  0
   -0.5844   -0.0097    5.8349 C   0  0  0  0  0  0  0  0  0  0  0  0
    0.1290   -0.0151    7.0778 C   0  0  0  0  0  0  0  0  0  0  0  0
   -0.6665   -0.0314    8.2558 C   0  0  0  0  0  0  0  0  0  0  0  0
   -0.1102   -0.0439    9.5176 C   0  0  0  0  0  0  0  0  0  0  0  0
    1.3005   -0.0462    9.6891 C   0  0  0  0  0  0  0  0  0  0  0  0
    1.8631   -0.0870   10.9423 N   0  0  0  0  0  0  0  0  0  0  0  0
    1.0395   -0.0628   12.1336 C   0  0  0  0  0  0  0  0  0  0  0  0
    0.4691    1.2957   12.5147 C   0  0  0  0  0  0  0  0  0  0  0  0
    0.7733    2.4570   11.7967 C   0  0  0  0  0  0  0  0  0  0  0  0
    0.2388    3.6905   12.1824 C   0  0  0  0  0  0  0  0  0  0  0  0
   -0.6068    3.7760   13.2898 C   0  0  0  0  0  0  0  0  0  0  0  0
   -0.9179    2.6185   14.0111 C   0  0  0  0  0  0  0  0  0  0  0  0
   -0.3840    1.3889   13.6241 C   0  0  0  0  0  0  0  0  0  0  0  0
    3.3082    0.0293   11.1266 C   0  0  0  0  0  0  0  0  0  0  0  0
    4.0725   -0.5942    9.9675 C   0  0  0  0  0  0  0  0  0  0  0  0
    3.6246    0.0420    8.6559 C   0  0  0  0  0  0  0  0  0  0  0  0
    2.1197   -0.0047    8.5185 C   0  0  0  0  0  0  0  0  0  0  0  0
    1.5363   -0.0012    7.2637 C   0  0  0  0  0  0  0  0  0  0  0  0
   -3.2268   -0.0013    3.2848 H   0  0  0  0  0  0  0  0  0  0  0  0
    2.2860   -0.0007   -0.3364 Au  0  0  0  0  0  0  0  0  0  0  0  0
   -1.6651   -0.0137    6.0026 H   0  0  0  0  0  0  0  0  0  0  0  0
   -1.7553   -0.0276    8.1603 H   0  0  0  0  0  0  0  0  0  0  0  0
   -0.7696   -0.0292   10.3828 H   0  0  0  0  0  0  0  0  0  0  0  0
    0.2162   -0.7889   12.0290 H   0  0  0  0  0  0  0  0  0  0  0  0
    1.6565   -0.4348   12.9666 H   0  0  0  0  0  0  0  0  0  0  0  0
    1.4242    2.3990   10.9231 H   0  0  0  0  0  0  0  0  0  0  0  0
    0.4836    4.5878   11.6092 H   0  0  0  0  0  0  0  0  0  0  0  0
   -1.0254    4.7394   13.5897 H   0  0  0  0  0  0  0  0  0  0  0  0
   -1.5810    2.6746   14.8779 H   0  0  0  0  0  0  0  0  0  0  0  0
   -0.6331    0.4868   14.1911 H   0  0  0  0  0  0  0  0  0  0  0  0
    3.5983    1.0925   11.2417 H   0  0  0  0  0  0  0  0  0  0  0  0
    3.5662   -0.4709   12.0723 H   0  0  0  0  0  0  0  0  0  0  0  0
    5.1528   -0.4576   10.1283 H   0  0  0  0  0  0  0  0  0  0  0  0
    3.8766   -1.6795    9.9469 H   0  0  0  0  0  0  0  0  0  0  0  0
    4.0911   -0.4531    7.7915 H   0  0  0  0  0  0  0  0  0  0  0  0
    3.9645    1.0938    8.6282 H   0  0  0  0  0  0  0  0  0  0  0  0
    2.1619    0.0147    6.3722 H   0  0  0  0  0  0  0  0  0  0  0  0
  2  1  1  0  0  0  0
  2  9  1  0  0  0  0
  3  2  2  0  0  0  0
  4  3  2  0  0  0  0
  4  6  2  0  0  0  0
  5  4  1  0  0  0  0
  6  7  2  0  0  0  0
  7  8  2  0  0  0  0
  7  9  1  0  0  0  0
  9 10  2  0  0  0  0
 10 30  1  0  0  0  0
 10 11  1  0  0  0  0
 11 27  2  0  0  0  0
 11 12  1  0  0  0  0
 12 13  2  0  0  0  0
 13 14  1  0  0  0  0
 13 32  1  0  0  0  0
 14 15  1  0  0  0  0
 15 23  1  0  0  0  0
 15 16  1  0  0  0  0
 16 17  1  0  0  0  0
 16 34  1  0  0  0  0
 17 22  2  0  0  0  0
 18 19  2  0  0  0  0
 18 17  1  0  0  0  0
 19 20  1  0  0  0  0
 20 37  1  0  0  0  0
 20 21  2  0  0  0  0
 21 38  1  0  0  0  0
 22 21  1  0  0  0  0
 22 39  1  0  0  0  0
 23 40  1  0  0  0  0
 23 41  1  0  0  0  0
 24 42  1  0  0  0  0
 24 23  1  0  0  0  0
 25 24  1  0  0  0  0
 26 25  1  0  0  0  0
 26 14  2  0  0  0  0
 27 26  1  0  0  0  0
 28  1  1  0  0  0  0
 29  5  1  0  0  0  0
 31 12  1  0  0  0  0
 33 16  1  0  0  0  0
 35 18  1  0  0  0  0
 36 19  1  0  0  0  0
 43 24  1  0  0  0  0
 44 25  1  0  0  0  0
 45 25  1  0  0  0  0
 46 27  1  0  0  0  0
M  END
