000-888-924.xyz
 OpenBabel07262113383D
COC(=O)c1ccc(cc1)/C=C\1/SC(=NC1=O)S
 27 28  0  0  0  0  0  0  0  0999 V2000
   -1.8496   -0.0029   12.6764 C   0  0  0  0  0  0  0  0  0  0  0  0
   -1.5063   -0.0024   11.2928 O   0  0  0  0  0  0  0  0  0  0  0  0
   -0.1909    0.0011   11.0100 C   0  0  0  0  0  0  0  0  0  0  0  0
    0.6686    0.0038   11.8616 O   0  0  0  0  0  0  0  0  0  0  0  0
    0.0770    0.0012    9.5430 C   0  0  0  0  0  0  0  0  0  0  0  0
   -0.9497   -0.0014    8.5869 C   0  0  0  0  0  0  0  0  0  0  0  0
   -0.6569   -0.0013    7.2263 C   0  0  0  0  0  0  0  0  0  0  0  0
    0.6845    0.0012    6.7840 C   0  0  0  0  0  0  0  0  0  0  0  0
    1.1317    0.0010    5.3946 C   0  0  0  0  0  0  0  0  0  0  0  0
    0.5134    0.0003    4.1827 C   0  0  0  0  0  0  0  0  0  0  0  0
    1.4998   -0.0000    2.6999 S   0  0  0  0  0  0  0  0  0  0  0  0
   -0.0000    0.0000    1.7481 C   0  0  0  0  0  0  0  0  0  0  0  0
    0.0000    0.0000    0.0000 S   0  0  0  0  0  0  0  0  0  0  0  0
   -1.1130    0.0002    2.3887 N   0  0  0  0  0  0  0  0  0  0  0  0
   -0.9503    0.0003    3.7824 C   0  0  0  0  0  0  0  0  0  0  0  0
   -1.8841    0.0003    4.5537 O   0  0  0  0  0  0  0  0  0  0  0  0
    1.7091    0.0038    7.7625 C   0  0  0  0  0  0  0  0  0  0  0  0
    1.4140    0.0039    9.1181 C   0  0  0  0  0  0  0  0  0  0  0  0
   -1.4485    0.8906   13.1782 H   0  0  0  0  0  0  0  0  0  0  0  0
   -2.9454   -0.0063   12.7199 H   0  0  0  0  0  0  0  0  0  0  0  0
   -1.4429   -0.8935   13.1790 H   0  0  0  0  0  0  0  0  0  0  0  0
   -1.9879   -0.0036    8.9192 H   0  0  0  0  0  0  0  0  0  0  0  0
   -1.4567   -0.0031    6.4899 H   0  0  0  0  0  0  0  0  0  0  0  0
    2.2258    0.0016    5.3289 H   0  0  0  0  0  0  0  0  0  0  0  0
    2.2492   -0.0040   -0.5123 Au  0  0  0  0  0  0  0  0  0  0  0  0
    2.7533    0.0058    7.4401 H   0  0  0  0  0  0  0  0  0  0  0  0
    2.2033    0.0060    9.8714 H   0  0  0  0  0  0  0  0  0  0  0  0
  1 20  1  0  0  0  0
  1 19  1  0  0  0  0
  1 21  1  0  0  0  0
  2  1  1  0  0  0  0
  3  2  1  0  0  0  0
  3  4  2  0  0  0  0
  5  3  1  0  0  0  0
  6 22  1  0  0  0  0
  6  5  2  0  0  0  0
  7  6  1  0  0  0  0
  8  7  2  0  0  0  0
  8 17  1  0  0  0  0
  9  8  1  0  0  0  0
 10  9  2  0  0  0  0
 11 10  1  0  0  0  0
 12 14  2  0  0  0  0
 12 11  1  0  0  0  0
 13 12  1  0  0  0  0
 14 15  2  0  0  0  0
 15 10  1  0  0  0  0
 15 16  2  0  0  0  0
 17 18  2  0  0  0  0
 18  5  1  0  0  0  0
 18 27  1  0  0  0  0
 23  7  1  0  0  0  0
 24  9  1  0  0  0  0
 25 13  1  0  0  0  0
 26 17  1  0  0  0  0
M  END
