000-721-543.xyz
 OpenBabel07262113333D
Clc1cccc(c1)N1C(=NC(=O)/C(=C/c2cn(c3c2cccc3)C)/C1=O)S
 41 44  0  0  0  0  0  0  0  0999 V2000
   -4.4051    0.0909    8.6123 C   0  0  0  0  0  0  0  0  0  0  0  0
   -3.0093    0.0742    8.2314 N   0  0  0  0  0  0  0  0  0  0  0  0
   -2.5334    0.0570    6.9611 C   0  0  0  0  0  0  0  0  0  0  0  0
   -1.1292    0.0451    6.9676 C   0  0  0  0  0  0  0  0  0  0  0  0
   -0.1798    0.0284    5.9118 C   0  0  0  0  0  0  0  0  0  0  0  0
   -0.2281    0.0161    4.5323 C   0  0  0  0  0  0  0  0  0  0  0  0
    1.1006    0.0032    3.8386 C   0  0  0  0  0  0  0  0  0  0  0  0
    2.1531   -0.0027    4.4532 O   0  0  0  0  0  0  0  0  0  0  0  0
    1.1032   -0.0000    2.4431 N   0  0  0  0  0  0  0  0  0  0  0  0
    0.0000    0.0000    1.7734 C   0  0  0  0  0  0  0  0  0  0  0  0
    0.0000    0.0000    0.0000 S   0  0  0  0  0  0  0  0  0  0  0  0
   -1.2661    0.0017    2.3370 N   0  0  0  0  0  0  0  0  0  0  0  0
   -1.4549    0.0137    3.7449 C   0  0  0  0  0  0  0  0  0  0  0  0
   -2.6009    0.0200    4.1687 O   0  0  0  0  0  0  0  0  0  0  0  0
   -2.4439   -0.0056    1.5125 C   0  0  0  0  0  0  0  0  0  0  0  0
   -2.9929   -1.2210    1.0973 C   0  0  0  0  0  0  0  0  0  0  0  0
   -4.1306   -1.2167    0.2897 C   0  0  0  0  0  0  0  0  0  0  0  0
   -4.7219   -0.0121   -0.0971 C   0  0  0  0  0  0  0  0  0  0  0  0
   -4.1628    1.1938    0.3359 C   0  0  0  0  0  0  0  0  0  0  0  0
   -4.8966    2.7051   -0.1398 Cl  0  0  0  0  0  0  0  0  0  0  0  0
   -3.0250    1.2093    1.1427 C   0  0  0  0  0  0  0  0  0  0  0  0
   -0.7462    0.0559    8.3780 C   0  0  0  0  0  0  0  0  0  0  0  0
    0.4821    0.0520    9.0542 C   0  0  0  0  0  0  0  0  0  0  0  0
    0.4812    0.0658   10.4485 C   0  0  0  0  0  0  0  0  0  0  0  0
   -0.7232    0.0834   11.1790 C   0  0  0  0  0  0  0  0  0  0  0  0
   -1.9580    0.0878   10.5305 C   0  0  0  0  0  0  0  0  0  0  0  0
   -1.9448    0.0738    9.1331 C   0  0  0  0  0  0  0  0  0  0  0  0
   -4.6528   -0.7955    9.2179 H   0  0  0  0  0  0  0  0  0  0  0  0
   -4.6354    0.9927    9.2018 H   0  0  0  0  0  0  0  0  0  0  0  0
   -5.0261    0.0889    7.7079 H   0  0  0  0  0  0  0  0  0  0  0  0
   -3.1875    0.0536    6.0949 H   0  0  0  0  0  0  0  0  0  0  0  0
    0.8603    0.0251    6.2577 H   0  0  0  0  0  0  0  0  0  0  0  0
    2.3097    0.0106   -0.2466 Au  0  0  0  0  0  0  0  0  0  0  0  0
   -2.5206   -2.1550    1.4041 H   0  0  0  0  0  0  0  0  0  0  0  0
   -4.5645   -2.1614   -0.0447 H   0  0  0  0  0  0  0  0  0  0  0  0
   -5.6105    0.0014   -0.7295 H   0  0  0  0  0  0  0  0  0  0  0  0
   -2.5900    2.1509    1.4761 H   0  0  0  0  0  0  0  0  0  0  0  0
    1.4241    0.0384    8.5018 H   0  0  0  0  0  0  0  0  0  0  0  0
    1.4316    0.0629   10.9867 H   0  0  0  0  0  0  0  0  0  0  0  0
   -0.6900    0.0939   12.2707 H   0  0  0  0  0  0  0  0  0  0  0  0
   -2.8919    0.1015   11.0954 H   0  0  0  0  0  0  0  0  0  0  0  0
  1 29  1  0  0  0  0
  1 28  1  0  0  0  0
  2  1  1  0  0  0  0
  2 27  1  0  0  0  0
  3  4  2  0  0  0  0
  3  2  1  0  0  0  0
  4 22  1  0  0  0  0
  5 32  1  0  0  0  0
  5  4  1  0  0  0  0
  6  5  2  0  0  0  0
  7  8  2  0  0  0  0
  7  6  1  0  0  0  0
  9  7  2  0  0  0  0
 10 12  1  0  0  0  0
 10  9  2  0  0  0  0
 11 10  1  0  0  0  0
 12 13  1  0  0  0  0
 13 14  2  0  0  0  0
 13  6  1  0  0  0  0
 15 12  1  0  0  0  0
 16 34  1  0  0  0  0
 16 15  2  0  0  0  0
 17 16  1  0  0  0  0
 18 17  2  0  0  0  0
 18 19  1  0  0  0  0
 19 21  2  0  0  0  0
 20 19  1  0  0  0  0
 21 37  1  0  0  0  0
 21 15  1  0  0  0  0
 22 23  2  0  0  0  0
 22 27  1  0  0  0  0
 23 24  1  0  0  0  0
 24 39  1  0  0  0  0
 24 25  2  0  0  0  0
 25 40  1  0  0  0  0
 26 41  1  0  0  0  0
 26 25  1  0  0  0  0
 27 26  2  0  0  0  0
 30  1  1  0  0  0  0
 31  3  1  0  0  0  0
 33 11  1  0  0  0  0
 35 17  1  0  0  0  0
 36 18  1  0  0  0  0
 38 23  1  0  0  0  0
M  END
