000-801-722.xyz
 OpenBabel07262113363D
SC1=NC(=O)/C(=C/c2ccc(o2)c2ccc(cc2)C)/C(=N1)O
 34 36  0  0  0  0  0  0  0  0999 V2000
    9.0596   -0.1544    7.8289 C   0  0  0  0  0  0  0  0  0  0  0  0
    7.5539   -0.1344    7.8285 C   0  0  0  0  0  0  0  0  0  0  0  0
    6.8393   -0.1277    9.0400 C   0  0  0  0  0  0  0  0  0  0  0  0
    5.4500   -0.1066    9.0575 C   0  0  0  0  0  0  0  0  0  0  0  0
    4.7205   -0.0913    7.8523 C   0  0  0  0  0  0  0  0  0  0  0  0
    5.4280   -0.0981    6.6362 C   0  0  0  0  0  0  0  0  0  0  0  0
    6.8208   -0.1194    6.6325 C   0  0  0  0  0  0  0  0  0  0  0  0
    3.2689   -0.0697    7.8585 C   0  0  0  0  0  0  0  0  0  0  0  0
    2.3232   -0.0617    8.8785 C   0  0  0  0  0  0  0  0  0  0  0  0
    1.0643   -0.0409    8.2482 C   0  0  0  0  0  0  0  0  0  0  0  0
    1.2929   -0.0362    6.8711 C   0  0  0  0  0  0  0  0  0  0  0  0
    0.3263   -0.0193    5.8412 C   0  0  0  0  0  0  0  0  0  0  0  0
    0.3237   -0.0098    4.4654 C   0  0  0  0  0  0  0  0  0  0  0  0
    1.4364   -0.0048    3.5410 C   0  0  0  0  0  0  0  0  0  0  0  0
    2.6861   -0.0016    4.0037 O   0  0  0  0  0  0  0  0  0  0  0  0
    1.2856    0.0000    2.2471 N   0  0  0  0  0  0  0  0  0  0  0  0
   -0.0000    0.0000    1.7632 C   0  0  0  0  0  0  0  0  0  0  0  0
    0.0000    0.0000    0.0000 S   0  0  0  0  0  0  0  0  0  0  0  0
   -1.1112    0.0007    2.4421 N   0  0  0  0  0  0  0  0  0  0  0  0
   -1.0511   -0.0013    3.8267 C   0  0  0  0  0  0  0  0  0  0  0  0
   -2.0602    0.0021    4.5123 O   0  0  0  0  0  0  0  0  0  0  0  0
    2.6435   -0.0541    6.6640 O   0  0  0  0  0  0  0  0  0  0  0  0
    9.4454   -1.0314    8.3744 H   0  0  0  0  0  0  0  0  0  0  0  0
    9.4680    0.7395    8.3293 H   0  0  0  0  0  0  0  0  0  0  0  0
    9.4648   -0.1847    6.8074 H   0  0  0  0  0  0  0  0  0  0  0  0
    7.3873   -0.1396    9.9860 H   0  0  0  0  0  0  0  0  0  0  0  0
    4.9238   -0.1020   10.0140 H   0  0  0  0  0  0  0  0  0  0  0  0
    4.8686   -0.0868    5.7002 H   0  0  0  0  0  0  0  0  0  0  0  0
    7.3541   -0.1248    5.6784 H   0  0  0  0  0  0  0  0  0  0  0  0
    2.5266   -0.0705    9.9458 H   0  0  0  0  0  0  0  0  0  0  0  0
    0.0840   -0.0303    8.7197 H   0  0  0  0  0  0  0  0  0  0  0  0
   -0.6967   -0.0142    6.2373 H   0  0  0  0  0  0  0  0  0  0  0  0
    3.2506    0.0050    3.2097 H   0  0  0  0  0  0  0  0  0  0  0  0
   -2.2854   -0.0040   -0.3420 Au  0  0  0  0  0  0  0  0  0  0  0  0
  1 24  1  0  0  0  0
  1 23  1  0  0  0  0
  2  1  1  0  0  0  0
  2  3  2  0  0  0  0
  3  4  1  0  0  0  0
  3 26  1  0  0  0  0
  4 27  1  0  0  0  0
  5  8  1  0  0  0  0
  5  4  2  0  0  0  0
  6  5  1  0  0  0  0
  7  6  2  0  0  0  0
  7  2  1  0  0  0  0
  8  9  2  0  0  0  0
  9 30  1  0  0  0  0
 10 31  1  0  0  0  0
 10  9  1  0  0  0  0
 11 10  2  0  0  0  0
 12 32  1  0  0  0  0
 12 11  1  0  0  0  0
 13 12  2  0  0  0  0
 14 15  1  0  0  0  0
 14 13  1  0  0  0  0
 16 14  2  0  0  0  0
 17 16  2  0  0  0  0
 17 19  2  0  0  0  0
 18 17  1  0  0  0  0
 19 20  2  0  0  0  0
 20 13  1  0  0  0  0
 20 21  2  0  0  0  0
 22 11  1  0  0  0  0
 22  8  1  0  0  0  0
 25  1  1  0  0  0  0
 28  6  1  0  0  0  0
 29  7  1  0  0  0  0
 33 15  1  0  0  0  0
 34 18  1  0  0  0  0
M  END
