000-705-645.xyz
 OpenBabel07262113333D
Cc1ccc(c(c1)Br)c1ccc(o1)/C=C\1/C(=O)N=C(N(C1=O)c1ccccc1)S
 44 47  0  0  0  0  0  0  0  0999 V2000
   -8.8329   -0.0502    7.3023 C   0  0  0  0  0  0  0  0  0  0  0  0
   -7.3422   -0.0464    7.5128 C   0  0  0  0  0  0  0  0  0  0  0  0
   -6.4581   -0.0319    6.4210 C   0  0  0  0  0  0  0  0  0  0  0  0
   -5.0850   -0.0270    6.6106 C   0  0  0  0  0  0  0  0  0  0  0  0
   -4.5103   -0.0365    7.9081 C   0  0  0  0  0  0  0  0  0  0  0  0
   -3.0531   -0.0300    7.9887 C   0  0  0  0  0  0  0  0  0  0  0  0
   -2.0852   -0.0264    8.9921 C   0  0  0  0  0  0  0  0  0  0  0  0
   -0.8359   -0.0180    8.3390 C   0  0  0  0  0  0  0  0  0  0  0  0
   -1.0882   -0.0163    6.9676 C   0  0  0  0  0  0  0  0  0  0  0  0
   -0.1532   -0.0090    5.9051 C   0  0  0  0  0  0  0  0  0  0  0  0
   -0.2238   -0.0044    4.5321 C   0  0  0  0  0  0  0  0  0  0  0  0
    1.1067   -0.0005    3.8297 C   0  0  0  0  0  0  0  0  0  0  0  0
    2.1563    0.0015    4.4491 O   0  0  0  0  0  0  0  0  0  0  0  0
    1.1073   -0.0000    2.4393 N   0  0  0  0  0  0  0  0  0  0  0  0
   -0.0000   -0.0000    1.7718 C   0  0  0  0  0  0  0  0  0  0  0  0
    0.0000    0.0000    0.0000 S   0  0  0  0  0  0  0  0  0  0  0  0
   -1.2641    0.0000    2.3334 N   0  0  0  0  0  0  0  0  0  0  0  0
   -1.4646   -0.0020    3.7427 C   0  0  0  0  0  0  0  0  0  0  0  0
   -2.6038   -0.0008    4.1626 O   0  0  0  0  0  0  0  0  0  0  0  0
   -2.4412    0.0025    1.5043 C   0  0  0  0  0  0  0  0  0  0  0  0
   -3.0061    1.2180    1.1100 C   0  0  0  0  0  0  0  0  0  0  0  0
   -4.1439    1.2178    0.3024 C   0  0  0  0  0  0  0  0  0  0  0  0
   -4.7149    0.0075   -0.1023 C   0  0  0  0  0  0  0  0  0  0  0  0
   -4.1496   -1.2053    0.3030 C   0  0  0  0  0  0  0  0  0  0  0  0
   -3.0118   -1.2105    1.1106 C   0  0  0  0  0  0  0  0  0  0  0  0
   -2.4349   -0.0238    6.7881 O   0  0  0  0  0  0  0  0  0  0  0  0
   -5.4083   -0.0517    8.9961 C   0  0  0  0  0  0  0  0  0  0  0  0
   -4.8380   -0.0688   10.8206 Br  0  0  0  0  0  0  0  0  0  0  0  0
   -6.7918   -0.0565    8.7982 C   0  0  0  0  0  0  0  0  0  0  0  0
   -9.3790   -0.0736    8.2560 H   0  0  0  0  0  0  0  0  0  0  0  0
   -9.1548    0.8463    6.7469 H   0  0  0  0  0  0  0  0  0  0  0  0
   -9.1452   -0.9250    6.7084 H   0  0  0  0  0  0  0  0  0  0  0  0
   -6.8545   -0.0241    5.4025 H   0  0  0  0  0  0  0  0  0  0  0  0
   -4.4144   -0.0156    5.7499 H   0  0  0  0  0  0  0  0  0  0  0  0
   -2.2645   -0.0291   10.0599 H   0  0  0  0  0  0  0  0  0  0  0  0
    0.1497   -0.0133    8.7997 H   0  0  0  0  0  0  0  0  0  0  0  0
    0.8830   -0.0071    6.2613 H   0  0  0  0  0  0  0  0  0  0  0  0
    2.3080   -0.0011   -0.2582 Au  0  0  0  0  0  0  0  0  0  0  0  0
   -2.5453    2.1522    1.4353 H   0  0  0  0  0  0  0  0  0  0  0  0
   -4.5859    2.1658   -0.0121 H   0  0  0  0  0  0  0  0  0  0  0  0
   -5.6049    0.0094   -0.7360 H   0  0  0  0  0  0  0  0  0  0  0  0
   -4.5961   -2.1514   -0.0110 H   0  0  0  0  0  0  0  0  0  0  0  0
   -2.5555   -2.1467    1.4364 H   0  0  0  0  0  0  0  0  0  0  0  0
   -7.4477   -0.0685    9.6701 H   0  0  0  0  0  0  0  0  0  0  0  0
  1  2  1  0  0  0  0
  1 30  1  0  0  0  0
  2 29  2  0  0  0  0
  3  4  2  0  0  0  0
  3  2  1  0  0  0  0
  4  5  1  0  0  0  0
  5  6  1  0  0  0  0
  5 27  2  0  0  0  0
  6  7  2  0  0  0  0
  7 35  1  0  0  0  0
  8 36  1  0  0  0  0
  8  7  1  0  0  0  0
  9  8  2  0  0  0  0
 10 37  1  0  0  0  0
 10  9  1  0  0  0  0
 11 10  2  0  0  0  0
 12 13  2  0  0  0  0
 12 11  1  0  0  0  0
 14 12  2  0  0  0  0
 15 17  1  0  0  0  0
 15 14  2  0  0  0  0
 16 15  1  0  0  0  0
 17 18  1  0  0  0  0
 18 19  2  0  0  0  0
 18 11  1  0  0  0  0
 20 17  1  0  0  0  0
 21 39  1  0  0  0  0
 21 20  2  0  0  0  0
 22 21  1  0  0  0  0
 23 22  2  0  0  0  0
 23 24  1  0  0  0  0
 24 25  2  0  0  0  0
 25 43  1  0  0  0  0
 25 20  1  0  0  0  0
 26  9  1  0  0  0  0
 26  6  1  0  0  0  0
 27 28  1  0  0  0  0
 29 27  1  0  0  0  0
 29 44  1  0  0  0  0
 31  1  1  0  0  0  0
 32  1  1  0  0  0  0
 33  3  1  0  0  0  0
 34  4  1  0  0  0  0
 38 16  1  0  0  0  0
 40 22  1  0  0  0  0
 41 23  1  0  0  0  0
 42 24  1  0  0  0  0
M  END
