000-835-687.xyz
 OpenBabel07262113373D
Clc1ccc(cc1)c1ccc(o1)/C=C\1/C(=O)N=C(N(C1=O)c1ccccc1F)S
 41 44  0  0  0  0  0  0  0  0999 V2000
    2.4851    2.3752    1.7354 F   0  0  0  0  0  0  0  0  0  0  0  0
    3.0321    1.2684    1.2286 C   0  0  0  0  0  0  0  0  0  0  0  0
    4.1699    1.3547    0.4350 C   0  0  0  0  0  0  0  0  0  0  0  0
    4.7222    0.1808   -0.0844 C   0  0  0  0  0  0  0  0  0  0  0  0
    4.1427   -1.0613    0.1934 C   0  0  0  0  0  0  0  0  0  0  0  0
    3.0031   -1.1323    0.9955 C   0  0  0  0  0  0  0  0  0  0  0  0
    2.4349    0.0352    1.5091 C   0  0  0  0  0  0  0  0  0  0  0  0
    1.2652   -0.0000    2.3332 N   0  0  0  0  0  0  0  0  0  0  0  0
    0.0000    0.0000    1.7709 C   0  0  0  0  0  0  0  0  0  0  0  0
    0.0000    0.0000    0.0000 S   0  0  0  0  0  0  0  0  0  0  0  0
   -1.1046   -0.0022    2.4408 N   0  0  0  0  0  0  0  0  0  0  0  0
   -1.1010    0.0154    3.8316 C   0  0  0  0  0  0  0  0  0  0  0  0
   -2.1485   -0.0159    4.4533 O   0  0  0  0  0  0  0  0  0  0  0  0
    0.2293    0.0848    4.5312 C   0  0  0  0  0  0  0  0  0  0  0  0
    0.1590    0.1402    5.9028 C   0  0  0  0  0  0  0  0  0  0  0  0
    1.0956    0.2168    6.9606 C   0  0  0  0  0  0  0  0  0  0  0  0
    0.8466    0.2676    8.3334 C   0  0  0  0  0  0  0  0  0  0  0  0
    2.0982    0.3390    8.9792 C   0  0  0  0  0  0  0  0  0  0  0  0
    3.0547    0.3287    7.9691 C   0  0  0  0  0  0  0  0  0  0  0  0
    2.4441    0.2554    6.7739 O   0  0  0  0  0  0  0  0  0  0  0  0
    4.5061    0.3794    7.9488 C   0  0  0  0  0  0  0  0  0  0  0  0
    5.2504    0.4549    9.1407 C   0  0  0  0  0  0  0  0  0  0  0  0
    6.6406    0.5033    9.1079 C   0  0  0  0  0  0  0  0  0  0  0  0
    7.2987    0.4762    7.8732 C   0  0  0  0  0  0  0  0  0  0  0  0
    9.0410    0.5366    7.8281 Cl  0  0  0  0  0  0  0  0  0  0  0  0
    6.5774    0.4014    6.6770 C   0  0  0  0  0  0  0  0  0  0  0  0
    5.1869    0.3532    6.7139 C   0  0  0  0  0  0  0  0  0  0  0  0
    1.4690    0.0866    3.7410 C   0  0  0  0  0  0  0  0  0  0  0  0
    2.6084    0.1438    4.1540 O   0  0  0  0  0  0  0  0  0  0  0  0
    4.6041    2.3358    0.2362 H   0  0  0  0  0  0  0  0  0  0  0  0
    5.6151    0.2399   -0.7106 H   0  0  0  0  0  0  0  0  0  0  0  0
    4.5802   -1.9751   -0.2126 H   0  0  0  0  0  0  0  0  0  0  0  0
    2.5328   -2.0889    1.2280 H   0  0  0  0  0  0  0  0  0  0  0  0
   -2.3074    0.0433   -0.2585 Au  0  0  0  0  0  0  0  0  0  0  0  0
   -0.8764    0.1206    6.2609 H   0  0  0  0  0  0  0  0  0  0  0  0
   -0.1387    0.2537    8.7945 H   0  0  0  0  0  0  0  0  0  0  0  0
    2.2869    0.3924   10.0481 H   0  0  0  0  0  0  0  0  0  0  0  0
    4.7393    0.4762   10.1052 H   0  0  0  0  0  0  0  0  0  0  0  0
    7.2205    0.5618   10.0297 H   0  0  0  0  0  0  0  0  0  0  0  0
    7.1092    0.3816    5.7249 H   0  0  0  0  0  0  0  0  0  0  0  0
    4.6103    0.2949    5.7884 H   0  0  0  0  0  0  0  0  0  0  0  0
  2  7  1  0  0  0  0
  2  1  1  0  0  0  0
  3  2  2  0  0  0  0
  4  5  2  0  0  0  0
  4  3  1  0  0  0  0
  5  6  1  0  0  0  0
  6 33  1  0  0  0  0
  6  7  2  0  0  0  0
  7  8  1  0  0  0  0
  8 28  1  0  0  0  0
  9  8  1  0  0  0  0
  9 11  2  0  0  0  0
 10  9  1  0  0  0  0
 11 12  2  0  0  0  0
 12 13  2  0  0  0  0
 12 14  1  0  0  0  0
 14 15  2  0  0  0  0
 15 35  1  0  0  0  0
 15 16  1  0  0  0  0
 16 17  2  0  0  0  0
 17 36  1  0  0  0  0
 17 18  1  0  0  0  0
 18 37  1  0  0  0  0
 19 18  2  0  0  0  0
 20 16  1  0  0  0  0
 20 19  1  0  0  0  0
 21 19  1  0  0  0  0
 21 22  2  0  0  0  0
 22 38  1  0  0  0  0
 23 22  1  0  0  0  0
 23 39  1  0  0  0  0
 24 23  2  0  0  0  0
 25 24  1  0  0  0  0
 26 27  2  0  0  0  0
 26 24  1  0  0  0  0
 27 21  1  0  0  0  0
 28 29  2  0  0  0  0
 28 14  1  0  0  0  0
 30  3  1  0  0  0  0
 31  4  1  0  0  0  0
 32  5  1  0  0  0  0
 34 10  1  0  0  0  0
 40 26  1  0  0  0  0
 41 27  1  0  0  0  0
M  END
