000-730-690.xyz
 OpenBabel07262113343D
COc1ccc2c(c1)nc(c(c2)/C=C/1\SC(=NC1=O)S)N1CCOCC1
 43 46  0  0  1  0  0  0  0  0999 V2000
    9.1817    1.9126    7.8235 C   0  0  0  0  0  0  0  0  0  0  0  0
    8.0390    1.2737    8.3468 O   0  0  0  0  0  0  0  0  0  0  0  0
    6.9407    1.1199    7.5710 C   0  0  0  0  0  0  0  0  0  0  0  0
    6.8678    1.5776    6.2246 C   0  0  0  0  0  0  0  0  0  0  0  0
    5.7087    1.3859    5.5010 C   0  0  0  0  0  0  0  0  0  0  0  0
    4.5874    0.7342    6.0697 C   0  0  2  0  0  0  0  0  0  0  0  0
    3.3562    0.5667    5.3993 C   0  0  0  0  0  0  0  0  0  0  0  0
    2.2801   -0.0514    6.0165 C   0  0  0  0  0  0  0  0  0  0  0  0
    0.9432   -0.0419    5.4488 C   0  0  0  0  0  0  0  0  0  0  0  0
    0.5467    0.0123    4.1582 C   0  0  0  0  0  0  0  0  0  0  0  0
    1.5272   -0.0000    2.6921 S   0  0  0  0  0  0  0  0  0  0  0  0
   -0.0000   -0.0000    1.7468 C   0  0  0  0  0  0  0  0  0  0  0  0
    0.0000    0.0000    0.0000 S   0  0  0  0  0  0  0  0  0  0  0  0
   -1.1071    0.0100    2.3923 N   0  0  0  0  0  0  0  0  0  0  0  0
   -0.9217    0.0163    3.7898 C   0  0  0  0  0  0  0  0  0  0  0  0
   -1.8152    0.0061    4.6027 O   0  0  0  0  0  0  0  0  0  0  0  0
    2.5092   -0.5959    7.3487 C   0  0  0  0  0  0  0  0  0  0  0  0
    3.6337   -0.3970    8.0069 N   0  0  0  0  0  0  0  0  0  0  0  0
    4.6652    0.2658    7.4252 C   0  0  0  0  0  0  0  0  0  0  0  0
    5.8544    0.4795    8.1544 C   0  0  0  0  0  0  0  0  0  0  0  0
    1.5119   -1.3195    7.9801 N   0  0  0  0  0  0  0  0  0  0  0  0
    0.7299   -2.3338    7.2547 C   0  0  0  0  0  0  0  0  0  0  0  0
    0.8557   -3.6950    7.9672 C   0  0  0  0  0  0  0  0  0  0  0  0
    2.1613   -3.8731    8.4531 O   0  0  0  0  0  0  0  0  0  0  0  0
    2.4723   -2.9852    9.5185 C   0  0  0  0  0  0  0  0  0  0  0  0
    1.7043   -1.6599    9.3844 C   0  0  0  0  0  0  0  0  0  0  0  0
    9.5945    1.3705    6.9541 H   0  0  0  0  0  0  0  0  0  0  0  0
    8.9706    2.9553    7.5263 H   0  0  0  0  0  0  0  0  0  0  0  0
    9.9302    1.9173    8.6266 H   0  0  0  0  0  0  0  0  0  0  0  0
    7.7149    2.0816    5.7616 H   0  0  0  0  0  0  0  0  0  0  0  0
    5.6452    1.7450    4.4703 H   0  0  0  0  0  0  0  0  0  0  0  0
    3.2353    1.0110    4.4085 H   0  0  0  0  0  0  0  0  0  0  0  0
    0.1097   -0.0714    6.1563 H   0  0  0  0  0  0  0  0  0  0  0  0
    2.2498   -0.0765   -0.5098 Au  0  0  0  0  0  0  0  0  0  0  0  0
    5.9207    0.1282    9.1839 H   0  0  0  0  0  0  0  0  0  0  0  0
   -0.3351   -2.0538    7.1655 H   0  0  0  0  0  0  0  0  0  0  0  0
    1.1330   -2.4260    6.2378 H   0  0  0  0  0  0  0  0  0  0  0  0
    0.1070   -3.7851    8.7799 H   0  0  0  0  0  0  0  0  0  0  0  0
    0.6528   -4.5047    7.2506 H   0  0  0  0  0  0  0  0  0  0  0  0
    2.2433   -3.4548   10.4970 H   0  0  0  0  0  0  0  0  0  0  0  0
    3.5534   -2.7970    9.4613 H   0  0  0  0  0  0  0  0  0  0  0  0
    0.7076   -1.7324    9.8494 H   0  0  0  0  0  0  0  0  0  0  0  0
    2.2566   -0.8547    9.8804 H   0  0  0  0  0  0  0  0  0  0  0  0
  1  2  1  0  0  0  0
  1 29  1  0  0  0  0
  3 20  2  0  0  0  0
  3  2  1  0  0  0  0
  4  3  1  0  0  0  0
  5  6  1  0  0  0  0
  5  4  2  0  0  0  0
  6  7  1  1  0  0  0
  6 19  1  0  0  0  0
  7  8  2  0  0  0  0
  8 17  1  0  0  0  0
  9  8  1  0  0  0  0
  9 33  1  0  0  0  0
 10  9  2  0  0  0  0
 11 10  1  0  0  0  0
 12 14  2  0  0  0  0
 12 11  1  0  0  0  0
 13 12  1  0  0  0  0
 14 15  2  0  0  0  0
 15 10  1  0  0  0  0
 15 16  2  0  0  0  0
 17 21  1  0  0  0  0
 17 18  2  0  0  0  0
 19 18  2  0  0  0  0
 19 20  1  0  0  0  0
 20 35  1  0  0  0  0
 21 26  1  0  0  0  0
 22 23  1  0  0  0  0
 22 21  1  0  0  0  0
 23 24  1  0  0  0  0
 23 38  1  0  0  0  0
 24 25  1  0  0  0  0
 25 40  1  0  0  0  0
 26 25  1  0  0  0  0
 26 42  1  0  0  0  0
 26 43  1  0  0  0  0
 27  1  1  0  0  0  0
 28  1  1  0  0  0  0
 30  4  1  0  0  0  0
 31  5  1  0  0  0  0
 32  7  1  0  0  0  0
 34 13  1  0  0  0  0
 36 22  1  0  0  0  0
 37 22  1  0  0  0  0
 39 23  1  0  0  0  0
 41 25  1  0  0  0  0
M  RAD  1   6   2
M  END
