000-888-846.xyz
 OpenBabel07262113383D
CC(Oc1ccc(cc1/C=C\1/SC(=NC1=O)S)Br)C
 31 32  0  0  0  0  0  0  0  0999 V2000
   -1.0229   -4.2755    6.8092 C   0  0  0  0  0  0  0  0  0  0  0  0
   -1.5282   -2.9828    6.1764 C   0  0  0  0  0  0  0  0  0  0  0  0
   -2.1353   -3.1945    4.7979 C   0  0  0  0  0  0  0  0  0  0  0  0
   -0.4375   -2.0658    6.0017 O   0  0  0  0  0  0  0  0  0  0  0  0
   -0.0553   -1.2226    6.9720 C   0  0  0  0  0  0  0  0  0  0  0  0
   -0.5174   -1.2821    8.2969 C   0  0  0  0  0  0  0  0  0  0  0  0
   -0.0188   -0.4189    9.2725 C   0  0  0  0  0  0  0  0  0  0  0  0
    0.9714    0.5055    8.9378 C   0  0  0  0  0  0  0  0  0  0  0  0
    1.6837    1.6646   10.2738 Br  0  0  0  0  0  0  0  0  0  0  0  0
    1.4440    0.5799    7.6307 C   0  0  0  0  0  0  0  0  0  0  0  0
    0.9150   -0.2444    6.6233 C   0  0  0  0  0  0  0  0  0  0  0  0
    1.4507   -0.0988    5.2660 C   0  0  0  0  0  0  0  0  0  0  0  0
    0.7789   -0.0765    4.0932 C   0  0  0  0  0  0  0  0  0  0  0  0
    1.6028   -0.0000    2.5234 S   0  0  0  0  0  0  0  0  0  0  0  0
    0.0000   -0.0000    1.7395 C   0  0  0  0  0  0  0  0  0  0  0  0
    0.0000    0.0000    0.0000 S   0  0  0  0  0  0  0  0  0  0  0  0
   -1.0375   -0.0091    2.5060 N   0  0  0  0  0  0  0  0  0  0  0  0
   -0.7151   -0.0093    3.8739 C   0  0  0  0  0  0  0  0  0  0  0  0
   -1.5385    0.0679    4.7567 O   0  0  0  0  0  0  0  0  0  0  0  0
   -0.5507   -4.0944    7.7859 H   0  0  0  0  0  0  0  0  0  0  0  0
   -0.2762   -4.7480    6.1522 H   0  0  0  0  0  0  0  0  0  0  0  0
   -1.8544   -4.9823    6.9550 H   0  0  0  0  0  0  0  0  0  0  0  0
   -2.2831   -2.5085    6.8262 H   0  0  0  0  0  0  0  0  0  0  0  0
   -1.3708   -3.5729    4.1012 H   0  0  0  0  0  0  0  0  0  0  0  0
   -2.9519   -3.9307    4.8519 H   0  0  0  0  0  0  0  0  0  0  0  0
   -2.5299   -2.2479    4.4054 H   0  0  0  0  0  0  0  0  0  0  0  0
   -1.2681   -2.0158    8.5853 H   0  0  0  0  0  0  0  0  0  0  0  0
   -0.3910   -0.4798   10.2962 H   0  0  0  0  0  0  0  0  0  0  0  0
    2.2144    1.3083    7.3716 H   0  0  0  0  0  0  0  0  0  0  0  0
    2.5378    0.0359    5.2173 H   0  0  0  0  0  0  0  0  0  0  0  0
   -2.3004    0.0160   -0.3011 Au  0  0  0  0  0  0  0  0  0  0  0  0
  1 22  1  0  0  0  0
  1 20  1  0  0  0  0
  2  1  1  0  0  0  0
  2 23  1  0  0  0  0
  3 25  1  0  0  0  0
  3  2  1  0  0  0  0
  4  2  1  0  0  0  0
  4  5  1  0  0  0  0
  5  6  1  0  0  0  0
  6 27  1  0  0  0  0
  6  7  2  0  0  0  0
  7 28  1  0  0  0  0
  8  7  1  0  0  0  0
  8  9  1  0  0  0  0
 10  8  2  0  0  0  0
 11  5  2  0  0  0  0
 11 10  1  0  0  0  0
 12 11  1  0  0  0  0
 13 12  2  0  0  0  0
 14 13  1  0  0  0  0
 15 17  2  0  0  0  0
 15 14  1  0  0  0  0
 16 15  1  0  0  0  0
 17 18  2  0  0  0  0
 18 13  1  0  0  0  0
 18 19  2  0  0  0  0
 21  1  1  0  0  0  0
 24  3  1  0  0  0  0
 26  3  1  0  0  0  0
 29 10  1  0  0  0  0
 30 12  1  0  0  0  0
 31 16  1  0  0  0  0
M  END
