000-842-543.xyz
 OpenBabel07262113383D
Brc1ccc(cc1)N1C(=NC(=O)/C(=C/c2cc(n(c2C)C)C)/C1=O)S
 41 43  0  0  0  0  0  0  0  0999 V2000
    4.2826   -0.0002    8.9569 C   0  0  0  0  0  0  0  0  0  0  0  0
    2.9164   -0.0002    8.3571 C   0  0  0  0  0  0  0  0  0  0  0  0
    2.5383   -0.0001    7.0414 C   0  0  0  0  0  0  0  0  0  0  0  0
    1.0959   -0.0002    6.9887 C   0  0  0  0  0  0  0  0  0  0  0  0
    0.1649   -0.0001    5.9137 C   0  0  0  0  0  0  0  0  0  0  0  0
    0.2288   -0.0001    4.5356 C   0  0  0  0  0  0  0  0  0  0  0  0
   -1.0992   -0.0000    3.8381 C   0  0  0  0  0  0  0  0  0  0  0  0
   -2.1539   -0.0001    4.4513 O   0  0  0  0  0  0  0  0  0  0  0  0
   -1.1044   -0.0000    2.4433 N   0  0  0  0  0  0  0  0  0  0  0  0
   -0.0000    0.0000    1.7746 C   0  0  0  0  0  0  0  0  0  0  0  0
    0.0000    0.0000    0.0000 S   0  0  0  0  0  0  0  0  0  0  0  0
    1.2642    0.0000    2.3358 N   0  0  0  0  0  0  0  0  0  0  0  0
    1.4596   -0.0000    3.7482 C   0  0  0  0  0  0  0  0  0  0  0  0
    2.6048    0.0000    4.1624 O   0  0  0  0  0  0  0  0  0  0  0  0
    2.4393    0.0000    1.5092 C   0  0  0  0  0  0  0  0  0  0  0  0
    3.0108   -1.2118    1.1134 C   0  0  0  0  0  0  0  0  0  0  0  0
    4.1473   -1.2176    0.3059 C   0  0  0  0  0  0  0  0  0  0  0  0
    4.7055    0.0000   -0.0932 C   0  0  0  0  0  0  0  0  0  0  0  0
    6.2555    0.0000   -1.1990 Br  0  0  0  0  0  0  0  0  0  0  0  0
    4.1471    1.2176    0.3057 C   0  0  0  0  0  0  0  0  0  0  0  0
    3.0106    1.2118    1.1132 C   0  0  0  0  0  0  0  0  0  0  0  0
    0.6508   -0.0003    8.3351 C   0  0  0  0  0  0  0  0  0  0  0  0
   -0.7244   -0.0004    8.9093 C   0  0  0  0  0  0  0  0  0  0  0  0
    1.7505   -0.0003    9.1377 N   0  0  0  0  0  0  0  0  0  0  0  0
    1.7018   -0.0003   10.5857 C   0  0  0  0  0  0  0  0  0  0  0  0
    4.4705    0.8900    9.5823 H   0  0  0  0  0  0  0  0  0  0  0  0
    4.4706   -0.8904    9.5821 H   0  0  0  0  0  0  0  0  0  0  0  0
    5.0274   -0.0001    8.1497 H   0  0  0  0  0  0  0  0  0  0  0  0
    3.1899   -0.0000    6.1762 H   0  0  0  0  0  0  0  0  0  0  0  0
   -0.8829   -0.0002    6.2320 H   0  0  0  0  0  0  0  0  0  0  0  0
   -2.3093    0.0003   -0.2483 Au  0  0  0  0  0  0  0  0  0  0  0  0
    2.5566   -2.1496    1.4369 H   0  0  0  0  0  0  0  0  0  0  0  0
    4.5973   -2.1587   -0.0117 H   0  0  0  0  0  0  0  0  0  0  0  0
    4.5970    2.1587   -0.0121 H   0  0  0  0  0  0  0  0  0  0  0  0
    2.5563    2.1497    1.4366 H   0  0  0  0  0  0  0  0  0  0  0  0
   -1.4834   -0.0001    8.1181 H   0  0  0  0  0  0  0  0  0  0  0  0
   -0.9008   -0.8881    9.5411 H   0  0  0  0  0  0  0  0  0  0  0  0
   -0.9008    0.8870    9.5415 H   0  0  0  0  0  0  0  0  0  0  0  0
    1.1800    0.8928   10.9642 H   0  0  0  0  0  0  0  0  0  0  0  0
    1.1786   -0.8925   10.9641 H   0  0  0  0  0  0  0  0  0  0  0  0
    2.7205   -0.0011   10.9886 H   0  0  0  0  0  0  0  0  0  0  0  0
  1 27  1  0  0  0  0
  1 26  1  0  0  0  0
  2  1  1  0  0  0  0
  2 24  1  0  0  0  0
  3  2  2  0  0  0  0
  4  3  1  0  0  0  0
  4 22  2  0  0  0  0
  5 30  1  0  0  0  0
  5  4  1  0  0  0  0
  6  5  2  0  0  0  0
  7  8  2  0  0  0  0
  7  6  1  0  0  0  0
  9  7  2  0  0  0  0
 10 12  1  0  0  0  0
 10  9  2  0  0  0  0
 11 10  1  0  0  0  0
 12 13  1  0  0  0  0
 13 14  2  0  0  0  0
 13  6  1  0  0  0  0
 15 12  1  0  0  0  0
 16 32  1  0  0  0  0
 16 15  1  0  0  0  0
 17 16  2  0  0  0  0
 18 20  2  0  0  0  0
 18 17  1  0  0  0  0
 19 18  1  0  0  0  0
 20 21  1  0  0  0  0
 21 35  1  0  0  0  0
 21 15  2  0  0  0  0
 22 23  1  0  0  0  0
 22 24  1  0  0  0  0
 23 37  1  0  0  0  0
 23 38  1  0  0  0  0
 24 25  1  0  0  0  0
 25 40  1  0  0  0  0
 25 39  1  0  0  0  0
 25 41  1  0  0  0  0
 28  1  1  0  0  0  0
 29  3  1  0  0  0  0
 31 11  1  0  0  0  0
 33 17  1  0  0  0  0
 34 20  1  0  0  0  0
 36 23  1  0  0  0  0
M  END
