000-761-034.xyz
 OpenBabel07262113353D
OC(=O)c1ccc(c(c1)c1ccc(o1)/C=C/1\C(=O)N=C(N(C1=O)C)S)Cl
 37 39  0  0  0  0  0  0  0  0999 V2000
   -2.4745    0.0790    1.5595 C   0  0  0  0  0  0  0  0  0  0  0  0
   -1.2521    0.0039    2.3586 N   0  0  0  0  0  0  0  0  0  0  0  0
   -0.0000   -0.0000    1.7712 C   0  0  0  0  0  0  0  0  0  0  0  0
    0.0000    0.0000    0.0000 S   0  0  0  0  0  0  0  0  0  0  0  0
    1.1247    0.0000    2.4136 N   0  0  0  0  0  0  0  0  0  0  0  0
    1.1808    0.0003    3.8048 C   0  0  0  0  0  0  0  0  0  0  0  0
    2.2430    0.1690    4.3729 O   0  0  0  0  0  0  0  0  0  0  0  0
   -0.1121   -0.2012    4.5201 C   0  0  0  0  0  0  0  0  0  0  0  0
   -0.2744   -0.4333    5.8627 C   0  0  0  0  0  0  0  0  0  0  0  0
    0.6183   -0.6573    6.9431 C   0  0  0  0  0  0  0  0  0  0  0  0
    0.3111   -0.8370    8.2902 C   0  0  0  0  0  0  0  0  0  0  0  0
    1.5306   -1.0413    8.9703 C   0  0  0  0  0  0  0  0  0  0  0  0
    2.5296   -0.9855    8.0023 C   0  0  0  0  0  0  0  0  0  0  0  0
    1.9640   -0.7592    6.7986 O   0  0  0  0  0  0  0  0  0  0  0  0
    3.9865   -1.0783    7.9769 C   0  0  0  0  0  0  0  0  0  0  0  0
    4.6470   -0.7707    6.7660 C   0  0  0  0  0  0  0  0  0  0  0  0
    6.0371   -0.8397    6.6601 C   0  0  0  0  0  0  0  0  0  0  0  0
    6.8091   -1.2148    7.7705 C   0  0  0  0  0  0  0  0  0  0  0  0
    6.1821   -1.5228    8.9722 C   0  0  0  0  0  0  0  0  0  0  0  0
    4.7900   -1.4587    9.0765 C   0  0  0  0  0  0  0  0  0  0  0  0
    4.1057   -1.8879   10.6252 Cl  0  0  0  0  0  0  0  0  0  0  0  0
    6.6657   -0.5084    5.3486 C   0  0  0  0  0  0  0  0  0  0  0  0
    8.0156   -0.5846    5.3885 O   0  0  0  0  0  0  0  0  0  0  0  0
    6.0654   -0.2054    4.3474 O   0  0  0  0  0  0  0  0  0  0  0  0
   -1.3840   -0.1087    3.7589 C   0  0  0  0  0  0  0  0  0  0  0  0
   -2.4903   -0.1384    4.2690 O   0  0  0  0  0  0  0  0  0  0  0  0
   -2.4722    0.9897    0.9435 H   0  0  0  0  0  0  0  0  0  0  0  0
   -2.5610   -0.7987    0.9019 H   0  0  0  0  0  0  0  0  0  0  0  0
   -3.3180    0.1005    2.2576 H   0  0  0  0  0  0  0  0  0  0  0  0
    2.3238    0.0213   -0.1913 Au  0  0  0  0  0  0  0  0  0  0  0  0
   -1.3225   -0.4749    6.1764 H   0  0  0  0  0  0  0  0  0  0  0  0
   -0.6884   -0.8153    8.7194 H   0  0  0  0  0  0  0  0  0  0  0  0
    1.6705   -1.1992   10.0324 H   0  0  0  0  0  0  0  0  0  0  0  0
    4.0604   -0.4666    5.8954 H   0  0  0  0  0  0  0  0  0  0  0  0
    7.8945   -1.2645    7.6869 H   0  0  0  0  0  0  0  0  0  0  0  0
    6.7621   -1.8214    9.8459 H   0  0  0  0  0  0  0  0  0  0  0  0
    8.3272   -0.3551    4.4973 H   0  0  0  0  0  0  0  0  0  0  0  0
  1 29  1  0  0  0  0
  1  2  1  0  0  0  0
  2 25  1  0  0  0  0
  3  2  1  0  0  0  0
  3  5  2  0  0  0  0
  4  3  1  0  0  0  0
  5  6  2  0  0  0  0
  6  7  2  0  0  0  0
  6  8  1  0  0  0  0
  8  9  2  0  0  0  0
  9 31  1  0  0  0  0
  9 10  1  0  0  0  0
 10 11  2  0  0  0  0
 11 32  1  0  0  0  0
 11 12  1  0  0  0  0
 12 33  1  0  0  0  0
 13 12  2  0  0  0  0
 14 10  1  0  0  0  0
 14 13  1  0  0  0  0
 15 13  1  0  0  0  0
 15 20  2  0  0  0  0
 16 15  1  0  0  0  0
 17 16  2  0  0  0  0
 17 18  1  0  0  0  0
 18 19  2  0  0  0  0
 19 20  1  0  0  0  0
 19 36  1  0  0  0  0
 20 21  1  0  0  0  0
 22 23  1  0  0  0  0
 22 17  1  0  0  0  0
 24 22  2  0  0  0  0
 25 26  2  0  0  0  0
 25  8  1  0  0  0  0
 27  1  1  0  0  0  0
 28  1  1  0  0  0  0
 30  4  1  0  0  0  0
 34 16  1  0  0  0  0
 35 18  1  0  0  0  0
 37 23  1  0  0  0  0
M  END
