000-778-538.xyz
 OpenBabel07262113363D
Fc1ccc(cc1)N1C(=NC(=O)/C(=C/c2cccn2c2ccccc2)/C1=O)S
 42 45  0  0  0  0  0  0  0  0999 V2000
    6.1105   -1.0582    0.2692 F   0  0  0  0  0  0  0  0  0  0  0  0
    4.9241   -0.8074    0.8346 C   0  0  0  0  0  0  0  0  0  0  0  0
    3.9765   -1.8245    0.9092 C   0  0  0  0  0  0  0  0  0  0  0  0
    2.7407   -1.5531    1.4989 C   0  0  0  0  0  0  0  0  0  0  0  0
    2.4593   -0.2750    1.9868 C   0  0  0  0  0  0  0  0  0  0  0  0
    3.4331    0.7311    1.9285 C   0  0  0  0  0  0  0  0  0  0  0  0
    4.6742    0.4682    1.3446 C   0  0  0  0  0  0  0  0  0  0  0  0
    1.1690   -0.0000    2.5396 N   0  0  0  0  0  0  0  0  0  0  0  0
    0.0000   -0.0000    1.7818 C   0  0  0  0  0  0  0  0  0  0  0  0
    0.0000    0.0000    0.0000 S   0  0  0  0  0  0  0  0  0  0  0  0
   -1.1855   -0.0296    2.2719 N   0  0  0  0  0  0  0  0  0  0  0  0
   -1.4091   -0.0658    3.6467 C   0  0  0  0  0  0  0  0  0  0  0  0
   -2.5192   -0.2797    4.0985 O   0  0  0  0  0  0  0  0  0  0  0  0
   -0.2313    0.2261    4.5252 C   0  0  0  0  0  0  0  0  0  0  0  0
   -0.5276    0.4138    5.8590 C   0  0  0  0  0  0  0  0  0  0  0  0
    0.2169    0.6849    7.0332 C   0  0  0  0  0  0  0  0  0  0  0  0
    1.5728    0.9604    7.3068 C   0  0  0  0  0  0  0  0  0  0  0  0
    1.6954    1.2511    8.6738 C   0  0  0  0  0  0  0  0  0  0  0  0
    0.4249    1.1443    9.2368 C   0  0  0  0  0  0  0  0  0  0  0  0
   -0.4646    0.8021    8.2675 N   0  0  0  0  0  0  0  0  0  0  0  0
   -1.8562    0.6009    8.5044 C   0  0  0  0  0  0  0  0  0  0  0  0
   -2.4514   -0.6326    8.2139 C   0  0  0  0  0  0  0  0  0  0  0  0
   -3.8140   -0.8142    8.4538 C   0  0  0  0  0  0  0  0  0  0  0  0
   -4.5774    0.2210    9.0008 C   0  0  0  0  0  0  0  0  0  0  0  0
   -3.9760    1.4461    9.3018 C   0  0  0  0  0  0  0  0  0  0  0  0
   -2.6176    1.6424    9.0467 C   0  0  0  0  0  0  0  0  0  0  0  0
    1.1105    0.2225    3.9517 C   0  0  0  0  0  0  0  0  0  0  0  0
    2.1577    0.3588    4.5604 O   0  0  0  0  0  0  0  0  0  0  0  0
    4.2138   -2.8107    0.5077 H   0  0  0  0  0  0  0  0  0  0  0  0
    1.9761   -2.3288    1.5558 H   0  0  0  0  0  0  0  0  0  0  0  0
    3.2143    1.7143    2.3449 H   0  0  0  0  0  0  0  0  0  0  0  0
    5.4528    1.2307    1.2888 H   0  0  0  0  0  0  0  0  0  0  0  0
    1.9501    1.0204   -0.7098 Au  0  0  0  0  0  0  0  0  0  0  0  0
   -1.6071    0.3269    6.0216 H   0  0  0  0  0  0  0  0  0  0  0  0
    2.3469    0.9418    6.5491 H   0  0  0  0  0  0  0  0  0  0  0  0
    2.6077    1.5002    9.2111 H   0  0  0  0  0  0  0  0  0  0  0  0
    0.0959    1.2584   10.2675 H   0  0  0  0  0  0  0  0  0  0  0  0
   -1.8457   -1.4407    7.8014 H   0  0  0  0  0  0  0  0  0  0  0  0
   -4.2790   -1.7728    8.2151 H   0  0  0  0  0  0  0  0  0  0  0  0
   -5.6432    0.0738    9.1885 H   0  0  0  0  0  0  0  0  0  0  0  0
   -4.5696    2.2604    9.7232 H   0  0  0  0  0  0  0  0  0  0  0  0
   -2.1420    2.6036    9.2511 H   0  0  0  0  0  0  0  0  0  0  0  0
  1  2  1  0  0  0  0
  2  3  2  0  0  0  0
  2  7  1  0  0  0  0
  3  4  1  0  0  0  0
  4 30  1  0  0  0  0
  4  5  2  0  0  0  0
  5  8  1  0  0  0  0
  6  5  1  0  0  0  0
  6 31  1  0  0  0  0
  7  6  2  0  0  0  0
  8 27  1  0  0  0  0
  9 11  2  0  0  0  0
  9  8  1  0  0  0  0
 10  9  1  0  0  0  0
 11 12  2  0  0  0  0
 12 13  2  0  0  0  0
 12 14  1  0  0  0  0
 14 15  2  0  0  0  0
 15 34  1  0  0  0  0
 15 16  1  0  0  0  0
 16 17  2  0  0  0  0
 16 20  1  0  0  0  0
 17 18  1  0  0  0  0
 18 36  1  0  0  0  0
 18 19  2  0  0  0  0
 19 37  1  0  0  0  0
 20 21  1  0  0  0  0
 20 19  1  0  0  0  0
 21 26  2  0  0  0  0
 22 23  2  0  0  0  0
 22 21  1  0  0  0  0
 23 24  1  0  0  0  0
 24 40  1  0  0  0  0
 24 25  2  0  0  0  0
 25 41  1  0  0  0  0
 26 42  1  0  0  0  0
 26 25  1  0  0  0  0
 27 14  1  0  0  0  0
 27 28  2  0  0  0  0
 29  3  1  0  0  0  0
 32  7  1  0  0  0  0
 33 10  1  0  0  0  0
 35 17  1  0  0  0  0
 38 22  1  0  0  0  0
 39 23  1  0  0  0  0
M  END
