000-775-158.xyz
 OpenBabel07262113363D
Cc1ccc(cc1)N1C(=NC(=O)/C(=C/c2cc(n(c2C)c2ccc(cc2)C)C)/C1=O)S
 54 57  0  0  0  0  0  0  0  0999 V2000
   -4.2639   -0.0035    8.9906 C   0  0  0  0  0  0  0  0  0  0  0  0
   -2.9145   -0.0035    8.3569 C   0  0  0  0  0  0  0  0  0  0  0  0
   -2.5363   -0.0027    7.0423 C   0  0  0  0  0  0  0  0  0  0  0  0
   -1.0916   -0.0021    6.9891 C   0  0  0  0  0  0  0  0  0  0  0  0
   -0.1612   -0.0013    5.9120 C   0  0  0  0  0  0  0  0  0  0  0  0
   -0.2260   -0.0007    4.5346 C   0  0  0  0  0  0  0  0  0  0  0  0
    1.1021   -0.0001    3.8364 C   0  0  0  0  0  0  0  0  0  0  0  0
    2.1571    0.0001    4.4497 O   0  0  0  0  0  0  0  0  0  0  0  0
    1.1063   -0.0000    2.4424 N   0  0  0  0  0  0  0  0  0  0  0  0
    0.0000    0.0000    1.7755 C   0  0  0  0  0  0  0  0  0  0  0  0
    0.0000    0.0000    0.0000 S   0  0  0  0  0  0  0  0  0  0  0  0
   -1.2633   -0.0001    2.3349 N   0  0  0  0  0  0  0  0  0  0  0  0
   -1.4579   -0.0006    3.7462 C   0  0  0  0  0  0  0  0  0  0  0  0
   -2.6017   -0.0008    4.1637 O   0  0  0  0  0  0  0  0  0  0  0  0
   -2.4371    0.0001    1.5033 C   0  0  0  0  0  0  0  0  0  0  0  0
   -3.0088    1.2101    1.1044 C   0  0  0  0  0  0  0  0  0  0  0  0
   -4.1430    1.2049    0.2946 C   0  0  0  0  0  0  0  0  0  0  0  0
   -4.7276    0.0003   -0.1263 C   0  0  0  0  0  0  0  0  0  0  0  0
   -5.9327    0.0002   -1.0314 C   0  0  0  0  0  0  0  0  0  0  0  0
   -4.1450   -1.2044    0.2971 C   0  0  0  0  0  0  0  0  0  0  0  0
   -3.0108   -1.2098    1.1068 C   0  0  0  0  0  0  0  0  0  0  0  0
   -0.6407   -0.0025    8.3323 C   0  0  0  0  0  0  0  0  0  0  0  0
    0.7332   -0.0028    8.9106 C   0  0  0  0  0  0  0  0  0  0  0  0
   -1.7444   -0.0034    9.1351 N   0  0  0  0  0  0  0  0  0  0  0  0
   -1.7209   -0.0038   10.5625 C   0  0  0  0  0  0  0  0  0  0  0  0
   -1.7057    1.2053   11.2637 C   0  0  0  0  0  0  0  0  0  0  0  0
   -1.6899    1.1995   12.6588 C   0  0  0  0  0  0  0  0  0  0  0  0
   -1.6880   -0.0045   13.3801 C   0  0  0  0  0  0  0  0  0  0  0  0
   -1.6376   -0.0049   14.8864 C   0  0  0  0  0  0  0  0  0  0  0  0
   -1.7086   -1.2081   12.6584 C   0  0  0  0  0  0  0  0  0  0  0  0
   -1.7242   -1.2132   11.2633 C   0  0  0  0  0  0  0  0  0  0  0  0
   -5.0355   -0.0020    8.2090 H   0  0  0  0  0  0  0  0  0  0  0  0
   -4.4196    0.8815    9.6302 H   0  0  0  0  0  0  0  0  0  0  0  0
   -4.4210   -0.8900    9.6279 H   0  0  0  0  0  0  0  0  0  0  0  0
   -3.1863   -0.0023    6.1758 H   0  0  0  0  0  0  0  0  0  0  0  0
    0.8865   -0.0011    6.2303 H   0  0  0  0  0  0  0  0  0  0  0  0
    2.3094   -0.0008   -0.2477 Au  0  0  0  0  0  0  0  0  0  0  0  0
   -2.5573    2.1484    1.4309 H   0  0  0  0  0  0  0  0  0  0  0  0
   -4.5855    2.1551   -0.0156 H   0  0  0  0  0  0  0  0  0  0  0  0
   -6.5605   -0.8886   -0.8676 H   0  0  0  0  0  0  0  0  0  0  0  0
   -6.5545    0.8947   -0.8759 H   0  0  0  0  0  0  0  0  0  0  0  0
   -5.6271   -0.0058   -2.0922 H   0  0  0  0  0  0  0  0  0  0  0  0
   -4.5890   -2.1545   -0.0112 H   0  0  0  0  0  0  0  0  0  0  0  0
   -2.5607   -2.1481    1.4352 H   0  0  0  0  0  0  0  0  0  0  0  0
    0.9009    0.8833    9.5446 H   0  0  0  0  0  0  0  0  0  0  0  0
    1.4945   -0.0057    8.1215 H   0  0  0  0  0  0  0  0  0  0  0  0
    0.8983   -0.8864    9.5489 H   0  0  0  0  0  0  0  0  0  0  0  0
   -1.7103    2.1448   10.7075 H   0  0  0  0  0  0  0  0  0  0  0  0
   -1.6812    2.1499   13.1987 H   0  0  0  0  0  0  0  0  0  0  0  0
   -2.1259    0.8869   15.3068 H   0  0  0  0  0  0  0  0  0  0  0  0
   -2.1267   -0.8963   15.3065 H   0  0  0  0  0  0  0  0  0  0  0  0
   -0.5931   -0.0053   15.2436 H   0  0  0  0  0  0  0  0  0  0  0  0
   -1.7144   -2.1587   13.1980 H   0  0  0  0  0  0  0  0  0  0  0  0
   -1.7427   -2.1523   10.7067 H   0  0  0  0  0  0  0  0  0  0  0  0
  1 34  1  0  0  0  0
  1 33  1  0  0  0  0
  2  1  1  0  0  0  0
  2 24  1  0  0  0  0
  3  2  2  0  0  0  0
  4  3  1  0  0  0  0
  4 22  2  0  0  0  0
  5 36  1  0  0  0  0
  5  4  1  0  0  0  0
  6  5  2  0  0  0  0
  7  8  2  0  0  0  0
  7  6  1  0  0  0  0
  9  7  2  0  0  0  0
 10 12  1  0  0  0  0
 10  9  2  0  0  0  0
 11 10  1  0  0  0  0
 12 13  1  0  0  0  0
 13 14  2  0  0  0  0
 13  6  1  0  0  0  0
 15 12  1  0  0  0  0
 16 38  1  0  0  0  0
 16 15  2  0  0  0  0
 17 16  1  0  0  0  0
 18 17  2  0  0  0  0
 18 20  1  0  0  0  0
 19 41  1  0  0  0  0
 19 40  1  0  0  0  0
 19 18  1  0  0  0  0
 20 21  2  0  0  0  0
 21 44  1  0  0  0  0
 21 15  1  0  0  0  0
 22 23  1  0  0  0  0
 22 24  1  0  0  0  0
 23 45  1  0  0  0  0
 23 47  1  0  0  0  0
 24 25  1  0  0  0  0
 25 31  2  0  0  0  0
 25 26  1  0  0  0  0
 26 27  2  0  0  0  0
 27 49  1  0  0  0  0
 27 28  1  0  0  0  0
 28 29  1  0  0  0  0
 29 52  1  0  0  0  0
 29 51  1  0  0  0  0
 29 50  1  0  0  0  0
 30 53  1  0  0  0  0
 30 28  2  0  0  0  0
 31 30  1  0  0  0  0
 32  1  1  0  0  0  0
 35  3  1  0  0  0  0
 37 11  1  0  0  0  0
 39 17  1  0  0  0  0
 42 19  1  0  0  0  0
 43 20  1  0  0  0  0
 46 23  1  0  0  0  0
 48 26  1  0  0  0  0
 54 31  1  0  0  0  0
M  END
