000-746-994.xyz
 OpenBabel07262113343D
Cc1cccc(c1)n1c(S)nc(c(c1=O)C1NCCc2c1cccc2)O
 45 48  0  0  1  0  0  0  0  0999 V2000
    4.6308    2.5555   -0.2256 C   0  0  0  0  0  0  0  0  0  0  0  0
    4.0890    1.2423    0.2786 C   0  0  0  0  0  0  0  0  0  0  0  0
    4.7098    0.0241   -0.0301 C   0  0  0  0  0  0  0  0  0  0  0  0
    4.2009   -1.1892    0.4438 C   0  0  0  0  0  0  0  0  0  0  0  0
    3.0540   -1.2088    1.2341 C   0  0  0  0  0  0  0  0  0  0  0  0
    2.4249    0.0013    1.5379 C   0  0  0  0  0  0  0  0  0  0  0  0
    2.9372    1.2135    1.0770 C   0  0  0  0  0  0  0  0  0  0  0  0
    1.2353    0.0000    2.3488 N   0  0  0  0  0  0  0  0  0  0  0  0
    0.0000   -0.0000    1.7739 C   0  0  0  0  0  0  0  0  0  0  0  0
    0.0000    0.0000    0.0000 S   0  0  0  0  0  0  0  0  0  0  0  0
   -1.1011   -0.0024    2.4733 N   0  0  0  0  0  0  0  0  0  0  0  0
   -1.0056   -0.0135    3.8323 C   0  0  0  0  0  0  0  0  0  0  0  0
   -2.1892   -0.0371    4.4657 O   0  0  0  0  0  0  0  0  0  0  0  0
    0.1782   -0.0005    4.5348 C   0  0  1  0  0  0  0  0  0  0  0  0
    0.3210   -0.0418    6.0475 C   0  0  2  0  0  0  0  0  0  0  0  0
    0.3267   -1.4209    6.5419 N   0  0  0  0  0  0  0  0  0  0  0  0
   -0.9966   -1.9271    6.8752 C   0  0  0  0  0  0  0  0  0  0  0  0
   -1.6870   -1.0935    7.9592 C   0  0  0  0  0  0  0  0  0  0  0  0
   -1.6125    0.3890    7.6614 C   0  0  0  0  0  0  0  0  0  0  0  0
   -2.4903    1.2873    8.2876 C   0  0  0  0  0  0  0  0  0  0  0  0
   -2.4327    2.6557    8.0286 C   0  0  0  0  0  0  0  0  0  0  0  0
   -1.4829    3.1489    7.1271 C   0  0  0  0  0  0  0  0  0  0  0  0
   -0.6091    2.2641    6.4985 C   0  0  0  0  0  0  0  0  0  0  0  0
   -0.6594    0.8876    6.7577 C   0  0  0  0  0  0  0  0  0  0  0  0
    1.4109    0.0014    3.7814 C   0  0  0  0  0  0  0  0  0  0  0  0
    2.5431    0.0230    4.2293 O   0  0  0  0  0  0  0  0  0  0  0  0
    4.8454    3.2432    0.6085 H   0  0  0  0  0  0  0  0  0  0  0  0
    3.9020    3.0597   -0.8816 H   0  0  0  0  0  0  0  0  0  0  0  0
    5.5594    2.4158   -0.7973 H   0  0  0  0  0  0  0  0  0  0  0  0
    5.6104    0.0259   -0.6495 H   0  0  0  0  0  0  0  0  0  0  0  0
    4.7057   -2.1254    0.1955 H   0  0  0  0  0  0  0  0  0  0  0  0
    2.6414   -2.1426    1.6181 H   0  0  0  0  0  0  0  0  0  0  0  0
    2.4256    2.1406    1.3444 H   0  0  0  0  0  0  0  0  0  0  0  0
   -2.2775   -0.0592   -0.3879 Au  0  0  0  0  0  0  0  0  0  0  0  0
   -2.8710    0.0001    3.7768 H   0  0  0  0  0  0  0  0  0  0  0  0
    1.3355    0.3441    6.2269 H   0  0  0  0  0  0  0  0  0  0  0  0
    0.9375   -1.4820    7.3549 H   0  0  0  0  0  0  0  0  0  0  0  0
   -0.9080   -2.9783    7.1936 H   0  0  0  0  0  0  0  0  0  0  0  0
   -1.6092   -1.9189    5.9608 H   0  0  0  0  0  0  0  0  0  0  0  0
   -2.7404   -1.3992    8.0797 H   0  0  0  0  0  0  0  0  0  0  0  0
   -1.1992   -1.2921    8.9329 H   0  0  0  0  0  0  0  0  0  0  0  0
   -3.2358    0.8974    8.9873 H   0  0  0  0  0  0  0  0  0  0  0  0
   -3.1270    3.3374    8.5263 H   0  0  0  0  0  0  0  0  0  0  0  0
   -1.4253    4.2200    6.9174 H   0  0  0  0  0  0  0  0  0  0  0  0
    0.1311    2.6411    5.7867 H   0  0  0  0  0  0  0  0  0  0  0  0
  1  2  1  0  0  0  0
  1 27  1  0  0  0  0
  2  7  1  0  0  0  0
  3  2  2  0  0  0  0
  3  4  1  0  0  0  0
  4  5  2  0  0  0  0
  5  6  1  0  0  0  0
  5 32  1  0  0  0  0
  6  8  1  0  0  0  0
  7 33  1  0  0  0  0
  7  6  2  0  0  0  0
  8 25  1  0  0  0  0
  9  8  1  0  0  0  0
  9 11  2  0  0  0  0
 10  9  1  0  0  0  0
 11 12  2  0  0  0  0
 12 13  1  0  0  0  0
 12 14  1  0  0  0  0
 14 25  1  6  0  0  0
 14 15  1  0  0  0  0
 15 36  1  1  0  0  0
 15 16  1  0  0  0  0
 15 24  1  0  0  0  0
 16 17  1  0  0  0  0
 16 37  1  0  0  0  0
 17 38  1  0  0  0  0
 17 18  1  0  0  0  0
 18 40  1  0  0  0  0
 18 41  1  0  0  0  0
 19 18  1  0  0  0  0
 19 20  2  0  0  0  0
 20 42  1  0  0  0  0
 21 20  1  0  0  0  0
 21 43  1  0  0  0  0
 22 21  2  0  0  0  0
 23 24  2  0  0  0  0
 23 22  1  0  0  0  0
 24 19  1  0  0  0  0
 25 26  2  0  0  0  0
 28  1  1  0  0  0  0
 29  1  1  0  0  0  0
 30  3  1  0  0  0  0
 31  4  1  0  0  0  0
 34 10  1  0  0  0  0
 35 13  1  0  0  0  0
 39 17  1  0  0  0  0
 44 22  1  0  0  0  0
 45 23  1  0  0  0  0
M  RAD  1  14   2
M  END
