000-697-463.xyz
 OpenBabel07262113333D
Sc1nc2scc(c2c(=O)n1c1ccccc1)c1ccccc1
 35 38  0  0  1  0  0  0  0  0999 V2000
    0.0000    0.0000    0.0000 S   0  0  0  0  0  0  0  0  0  0  0  0
    0.0000   -0.0000    1.7732 C   0  0  0  0  0  0  0  0  0  0  0  0
   -1.1060    0.0044    2.4639 N   0  0  0  0  0  0  0  0  0  0  0  0
   -0.9733    0.0033    3.8100 C   0  0  0  0  0  0  0  0  0  0  0  0
   -2.3617    0.0571    4.8602 S   0  0  0  0  0  0  0  0  0  0  0  0
   -1.3290    0.0621    6.2597 C   0  0  0  0  0  0  0  0  0  0  0  0
    0.0142    0.0217    5.9658 C   0  0  0  0  0  0  0  0  0  0  0  0
    0.2242   -0.0148    4.5335 C   0  0  2  0  0  0  0  0  0  0  0  0
    1.4655    0.0089    3.7797 C   0  0  0  0  0  0  0  0  0  0  0  0
    2.6047    0.0313    4.1996 O   0  0  0  0  0  0  0  0  0  0  0  0
    1.2480   -0.0000    2.3550 N   0  0  0  0  0  0  0  0  0  0  0  0
    2.4277    0.0037    1.5280 C   0  0  0  0  0  0  0  0  0  0  0  0
    3.0183    1.2186    1.1723 C   0  0  0  0  0  0  0  0  0  0  0  0
    4.1569    1.2175    0.3664 C   0  0  0  0  0  0  0  0  0  0  0  0
    4.7016    0.0078   -0.0752 C   0  0  0  0  0  0  0  0  0  0  0  0
    4.1097   -1.2043    0.2921 C   0  0  0  0  0  0  0  0  0  0  0  0
    2.9715   -1.2095    1.0991 C   0  0  0  0  0  0  0  0  0  0  0  0
    1.0444    0.0115    7.0297 C   0  0  0  0  0  0  0  0  0  0  0  0
    2.1466   -0.8593    6.9850 C   0  0  0  0  0  0  0  0  0  0  0  0
    3.0675   -0.8908    8.0317 C   0  0  0  0  0  0  0  0  0  0  0  0
    2.9100   -0.0534    9.1403 C   0  0  0  0  0  0  0  0  0  0  0  0
    1.8213    0.8202    9.1942 C   0  0  0  0  0  0  0  0  0  0  0  0
    0.8982    0.8523    8.1476 C   0  0  0  0  0  0  0  0  0  0  0  0
   -2.2894    0.0309   -0.3371 Au  0  0  0  0  0  0  0  0  0  0  0  0
   -1.7718    0.0591    7.2538 H   0  0  0  0  0  0  0  0  0  0  0  0
    2.5795    2.1518    1.5287 H   0  0  0  0  0  0  0  0  0  0  0  0
    4.6218    2.1645    0.0836 H   0  0  0  0  0  0  0  0  0  0  0  0
    5.5933    0.0097   -0.7062 H   0  0  0  0  0  0  0  0  0  0  0  0
    4.5369   -2.1498   -0.0490 H   0  0  0  0  0  0  0  0  0  0  0  0
    2.4955   -2.1451    1.3974 H   0  0  0  0  0  0  0  0  0  0  0  0
    2.2841   -1.5101    6.1230 H   0  0  0  0  0  0  0  0  0  0  0  0
    3.9179   -1.5749    7.9795 H   0  0  0  0  0  0  0  0  0  0  0  0
    3.6369   -0.0778    9.9558 H   0  0  0  0  0  0  0  0  0  0  0  0
    1.6936    1.4872   10.0504 H   0  0  0  0  0  0  0  0  0  0  0  0
    0.0608    1.5526    8.1825 H   0  0  0  0  0  0  0  0  0  0  0  0
  1  2  1  0  0  0  0
  2 11  1  0  0  0  0
  2  3  2  0  0  0  0
  3  4  2  0  0  0  0
  4  8  1  0  0  0  0
  4  5  1  0  0  0  0
  5  6  1  0  0  0  0
  6 25  1  0  0  0  0
  7  6  2  0  0  0  0
  7 18  1  0  0  0  0
  8  9  1  6  0  0  0
  8  7  1  0  0  0  0
  9 10  2  0  0  0  0
 11  9  1  0  0  0  0
 12 11  1  0  0  0  0
 13 12  1  0  0  0  0
 13 26  1  0  0  0  0
 14 13  2  0  0  0  0
 15 16  2  0  0  0  0
 15 14  1  0  0  0  0
 16 17  1  0  0  0  0
 17 30  1  0  0  0  0
 17 12  2  0  0  0  0
 18 23  1  0  0  0  0
 19 18  2  0  0  0  0
 19 20  1  0  0  0  0
 20 21  2  0  0  0  0
 21 22  1  0  0  0  0
 21 33  1  0  0  0  0
 22 34  1  0  0  0  0
 23 35  1  0  0  0  0
 23 22  2  0  0  0  0
 24  1  1  0  0  0  0
 27 14  1  0  0  0  0
 28 15  1  0  0  0  0
 29 16  1  0  0  0  0
 31 19  1  0  0  0  0
 32 20  1  0  0  0  0
M  RAD  1   8   2
M  END
