000-847-440.xyz
 OpenBabel07262113383D
Clc1cccc(c1)N1C(=NC(=O)/C(=C\c2cc(n(c2C)c2cccnc2)C)/C1=O)S
 47 50  0  0  1  0  0  0  0  0999 V2000
    3.3765    0.0875    9.3609 C   0  0  0  0  0  0  0  0  0  0  0  0
    2.0920    0.0865    8.6037 C   0  0  0  0  0  0  0  0  0  0  0  0
    1.8420    0.0621    7.2599 C   0  0  0  0  0  0  0  0  0  0  0  0
    0.4096    0.0521    7.0668 C   0  0  0  0  0  0  0  0  0  0  0  0
   -0.4090    0.0346    5.9017 C   0  0  0  0  0  0  0  0  0  0  0  0
   -0.1947    0.0159    4.5391 C   0  0  0  0  0  0  0  0  0  0  0  0
    1.1154    0.0017    3.8427 C   0  0  0  0  0  0  0  0  0  0  0  0
    2.1892   -0.0083    4.4226 O   0  0  0  0  0  0  0  0  0  0  0  0
    1.1022   -0.0000    2.4443 N   0  0  0  0  0  0  0  0  0  0  0  0
   -0.0000   -0.0000    1.7737 C   0  0  0  0  0  0  0  0  0  0  0  0
    0.0000    0.0000    0.0000 S   0  0  0  0  0  0  0  0  0  0  0  0
   -1.2646    0.0002    2.3368 N   0  0  0  0  0  0  0  0  0  0  0  0
   -1.4419    0.0086    3.7428 C   0  0  0  0  0  0  0  0  0  0  0  0
   -2.5731    0.0099    4.1925 O   0  0  0  0  0  0  0  0  0  0  0  0
   -2.4455   -0.0050    1.5169 C   0  0  0  0  0  0  0  0  0  0  0  0
   -3.0094   -1.2195    1.1197 C   0  0  0  0  0  0  0  0  0  0  0  0
   -4.1506   -1.2128    0.3172 C   0  0  0  0  0  0  0  0  0  0  0  0
   -4.7297   -0.0067   -0.0832 C   0  0  0  0  0  0  0  0  0  0  0  0
   -4.1553    1.1983    0.3316 C   0  0  0  0  0  0  0  0  0  0  0  0
   -4.8734    2.7115   -0.1616 Cl  0  0  0  0  0  0  0  0  0  0  0  0
   -3.0147    1.2115    1.1344 C   0  0  0  0  0  0  0  0  0  0  0  0
   -0.1722    0.0689    8.3574 C   0  0  0  0  0  0  0  0  0  0  0  0
   -1.5975    0.0855    8.7954 C   0  0  0  0  0  0  0  0  0  0  0  0
    0.8496    0.0880    9.2656 N   0  0  0  0  0  0  0  0  0  0  0  0
    0.6887    0.1046   10.6785 C   0  0  1  0  0  0  0  0  0  0  0  0
    0.3568   -1.0571   11.3801 C   0  0  0  0  0  0  0  0  0  0  0  0
    0.2159   -0.9764   12.7650 C   0  0  0  0  0  0  0  0  0  0  0  0
    0.4222    0.2599   13.3861 C   0  0  0  0  0  0  0  0  0  0  0  0
    0.7434    1.3711   12.7194 N   0  0  0  0  0  0  0  0  0  0  0  0
    0.8699    1.2946   11.3958 C   0  0  0  0  0  0  0  0  0  0  0  0
    3.5022    0.9965    9.9727 H   0  0  0  0  0  0  0  0  0  0  0  0
    3.4525   -0.7746   10.0450 H   0  0  0  0  0  0  0  0  0  0  0  0
    4.2146    0.0369    8.6532 H   0  0  0  0  0  0  0  0  0  0  0  0
    2.5676    0.0469    6.4557 H   0  0  0  0  0  0  0  0  0  0  0  0
   -1.4809    0.0372    6.1231 H   0  0  0  0  0  0  0  0  0  0  0  0
    2.3101    0.0095   -0.2443 Au  0  0  0  0  0  0  0  0  0  0  0  0
   -2.5468   -2.1545    1.4377 H   0  0  0  0  0  0  0  0  0  0  0  0
   -4.5972   -2.1567   -0.0021 H   0  0  0  0  0  0  0  0  0  0  0  0
   -5.6210    0.0086   -0.7116 H   0  0  0  0  0  0  0  0  0  0  0  0
   -2.5686    2.1524    1.4550 H   0  0  0  0  0  0  0  0  0  0  0  0
   -1.8736   -0.8405    9.3270 H   0  0  0  0  0  0  0  0  0  0  0  0
   -2.2720    0.1912    7.9374 H   0  0  0  0  0  0  0  0  0  0  0  0
   -1.7916    0.9220    9.4864 H   0  0  0  0  0  0  0  0  0  0  0  0
    0.2198   -1.9976   10.8422 H   0  0  0  0  0  0  0  0  0  0  0  0
   -0.0433   -1.8568   13.3565 H   0  0  0  0  0  0  0  0  0  0  0  0
    0.3222    0.3533   14.4733 H   0  0  0  0  0  0  0  0  0  0  0  0
    1.1269    2.2131   10.8558 H   0  0  0  0  0  0  0  0  0  0  0  0
  1 31  1  0  0  0  0
  1 32  1  0  0  0  0
  2 24  1  0  0  0  0
  2  1  1  0  0  0  0
  3  2  2  0  0  0  0
  4  3  1  0  0  0  0
  4 22  2  0  0  0  0
  5 35  1  0  0  0  0
  5  4  1  0  0  0  0
  6  5  2  0  0  0  0
  7  8  2  0  0  0  0
  7  6  1  0  0  0  0
  9  7  2  0  0  0  0
 10 12  1  0  0  0  0
 10  9  2  0  0  0  0
 11 10  1  0  0  0  0
 12 13  1  0  0  0  0
 13 14  2  0  0  0  0
 13  6  1  0  0  0  0
 15 12  1  0  0  0  0
 16 37  1  0  0  0  0
 16 15  2  0  0  0  0
 17 16  1  0  0  0  0
 18 17  2  0  0  0  0
 18 19  1  0  0  0  0
 19 21  2  0  0  0  0
 20 19  1  0  0  0  0
 21 40  1  0  0  0  0
 21 15  1  0  0  0  0
 22 23  1  0  0  0  0
 22 24  1  0  0  0  0
 23 41  1  0  0  0  0
 23 43  1  0  0  0  0
 25 24  1  1  0  0  0
 25 26  1  0  0  0  0
 25 30  1  0  0  0  0
 26 27  2  0  0  0  0
 27 45  1  0  0  0  0
 27 28  1  0  0  0  0
 28 46  1  0  0  0  0
 29 28  2  0  0  0  0
 30 29  2  0  0  0  0
 33  1  1  0  0  0  0
 34  3  1  0  0  0  0
 36 11  1  0  0  0  0
 38 17  1  0  0  0  0
 39 18  1  0  0  0  0
 42 23  1  0  0  0  0
 44 26  1  0  0  0  0
 47 30  1  0  0  0  0
M  RAD  1  25   2
M  END
