000-858-082.xyz
 OpenBabel07262113383D
Clc1ccc(cc1)N1C(=NC(=O)/C(=C\c2cc(n(c2C)C2CCCCC2)C)/C1=O)S
 54 57  0  0  0  0  0  0  0  0999 V2000
   -4.6697    0.9827    8.4488 C   0  0  0  0  0  0  0  0  0  0  0  0
   -3.2498    1.0060    7.9888 C   0  0  0  0  0  0  0  0  0  0  0  0
   -2.7368    0.6768    6.7654 C   0  0  0  0  0  0  0  0  0  0  0  0
   -1.3098    0.8671    6.8183 C   0  0  0  0  0  0  0  0  0  0  0  0
   -0.2880    0.6919    5.8467 C   0  0  0  0  0  0  0  0  0  0  0  0
   -0.2535    0.3341    4.5130 C   0  0  0  0  0  0  0  0  0  0  0  0
   -1.4045   -0.0515    3.6624 C   0  0  0  0  0  0  0  0  0  0  0  0
   -2.5050   -0.3498    4.0907 O   0  0  0  0  0  0  0  0  0  0  0  0
   -1.1796   -0.0169    2.2813 N   0  0  0  0  0  0  0  0  0  0  0  0
   -0.0000   -0.0000    1.7829 C   0  0  0  0  0  0  0  0  0  0  0  0
    0.0000    0.0000    0.0000 S   0  0  0  0  0  0  0  0  0  0  0  0
    1.1707   -0.0000    2.5392 N   0  0  0  0  0  0  0  0  0  0  0  0
    1.1036    0.2968    3.9331 C   0  0  0  0  0  0  0  0  0  0  0  0
    2.1395    0.4715    4.5507 O   0  0  0  0  0  0  0  0  0  0  0  0
    2.4531   -0.3182    1.9973 C   0  0  0  0  0  0  0  0  0  0  0  0
    2.6906   -1.6013    1.4995 C   0  0  0  0  0  0  0  0  0  0  0  0
    3.9159   -1.9118    0.9083 C   0  0  0  0  0  0  0  0  0  0  0  0
    4.9084   -0.9320    0.8359 C   0  0  0  0  0  0  0  0  0  0  0  0
    6.4384   -1.3050    0.0842 Cl  0  0  0  0  0  0  0  0  0  0  0  0
    4.6955    0.3469    1.3653 C   0  0  0  0  0  0  0  0  0  0  0  0
    3.4647    0.6505    1.9501 C   0  0  0  0  0  0  0  0  0  0  0  0
   -1.0110    1.3209    8.1312 C   0  0  0  0  0  0  0  0  0  0  0  0
    0.3246    1.6464    8.7171 C   0  0  0  0  0  0  0  0  0  0  0  0
   -2.1849    1.3943    8.8228 N   0  0  0  0  0  0  0  0  0  0  0  0
   -2.3855    1.8571   10.1979 C   0  0  0  0  0  0  0  0  0  0  0  0
   -1.5605    1.1126   11.2551 C   0  0  0  0  0  0  0  0  0  0  0  0
   -2.1159    1.4276   12.6588 C   0  0  0  0  0  0  0  0  0  0  0  0
   -2.6131    2.8881   12.7814 C   0  0  0  0  0  0  0  0  0  0  0  0
   -1.9075    3.8054   11.7781 C   0  0  0  0  0  0  0  0  0  0  0  0
   -2.2298    3.3919   10.3306 C   0  0  0  0  0  0  0  0  0  0  0  0
   -4.8351    0.2809    9.2846 H   0  0  0  0  0  0  0  0  0  0  0  0
   -5.3056    0.6575    7.6143 H   0  0  0  0  0  0  0  0  0  0  0  0
   -5.0282    1.9749    8.7728 H   0  0  0  0  0  0  0  0  0  0  0  0
   -3.2808    0.3149    5.9010 H   0  0  0  0  0  0  0  0  0  0  0  0
    0.7194    0.9033    6.2177 H   0  0  0  0  0  0  0  0  0  0  0  0
    1.9760    0.9789   -0.6988 Au  0  0  0  0  0  0  0  0  0  0  0  0
    1.8991   -2.3503    1.5477 H   0  0  0  0  0  0  0  0  0  0  0  0
    4.1027   -2.9059    0.5012 H   0  0  0  0  0  0  0  0  0  0  0  0
    5.4909    1.0918    1.3212 H   0  0  0  0  0  0  0  0  0  0  0  0
    3.2831    1.6373    2.3750 H   0  0  0  0  0  0  0  0  0  0  0  0
    1.0643    1.7993    7.9219 H   0  0  0  0  0  0  0  0  0  0  0  0
    0.3031    2.5610    9.3262 H   0  0  0  0  0  0  0  0  0  0  0  0
    0.6992    0.8321    9.3594 H   0  0  0  0  0  0  0  0  0  0  0  0
   -3.4319    1.6140   10.4195 H   0  0  0  0  0  0  0  0  0  0  0  0
   -0.5071    1.4175   11.1995 H   0  0  0  0  0  0  0  0  0  0  0  0
   -1.5886    0.0303   11.0567 H   0  0  0  0  0  0  0  0  0  0  0  0
   -2.9410    0.7366   12.8970 H   0  0  0  0  0  0  0  0  0  0  0  0
   -1.3278    1.2317   13.4030 H   0  0  0  0  0  0  0  0  0  0  0  0
   -2.4692    3.2536   13.8099 H   0  0  0  0  0  0  0  0  0  0  0  0
   -3.7001    2.9327   12.5936 H   0  0  0  0  0  0  0  0  0  0  0  0
   -2.1926    4.8565   11.9404 H   0  0  0  0  0  0  0  0  0  0  0  0
   -0.8183    3.7548   11.9481 H   0  0  0  0  0  0  0  0  0  0  0  0
   -1.4454    3.7495    9.6478 H   0  0  0  0  0  0  0  0  0  0  0  0
   -3.1653    3.8673    9.9934 H   0  0  0  0  0  0  0  0  0  0  0  0
  1 33  1  0  0  0  0
  1 31  1  0  0  0  0
  2  1  1  0  0  0  0
  2 24  1  0  0  0  0
  3  4  1  0  0  0  0
  3  2  2  0  0  0  0
  4 22  2  0  0  0  0
  5 35  1  0  0  0  0
  5  4  1  0  0  0  0
  6  5  2  0  0  0  0
  7  8  2  0  0  0  0
  7  6  1  0  0  0  0
  9  7  2  0  0  0  0
 10  9  2  0  0  0  0
 10 12  1  0  0  0  0
 11 10  1  0  0  0  0
 12 13  1  0  0  0  0
 13  6  1  0  0  0  0
 13 14  2  0  0  0  0
 15 12  1  0  0  0  0
 16 37  1  0  0  0  0
 16 15  2  0  0  0  0
 17 16  1  0  0  0  0
 18 17  2  0  0  0  0
 18 20  1  0  0  0  0
 19 18  1  0  0  0  0
 20 21  2  0  0  0  0
 21 15  1  0  0  0  0
 21 40  1  0  0  0  0
 22 23  1  0  0  0  0
 22 24  1  0  0  0  0
 23 42  1  0  0  0  0
 23 43  1  0  0  0  0
 24 25  1  0  0  0  0
 25 30  1  0  0  0  0
 25 44  1  0  0  0  0
 25 26  1  0  0  0  0
 26 27  1  0  0  0  0
 27 28  1  0  0  0  0
 27 47  1  0  0  0  0
 27 48  1  0  0  0  0
 28 49  1  0  0  0  0
 29 51  1  0  0  0  0
 29 52  1  0  0  0  0
 29 28  1  0  0  0  0
 30 29  1  0  0  0  0
 32  1  1  0  0  0  0
 34  3  1  0  0  0  0
 36 11  1  0  0  0  0
 38 17  1  0  0  0  0
 39 20  1  0  0  0  0
 41 23  1  0  0  0  0
 45 26  1  0  0  0  0
 46 26  1  0  0  0  0
 50 28  1  0  0  0  0
 53 30  1  0  0  0  0
 54 30  1  0  0  0  0
M  END
