000-726-376.xyz
 OpenBabel07262113333D
O=C1N=C(S)N(C(=O)/C/1=C/c1cccc2c1cccc2)c1ccccc1F
 40 43  0  0  0  0  0  0  0  0999 V2000
   -2.5792    2.2935    1.6448 F   0  0  0  0  0  0  0  0  0  0  0  0
   -3.0851    1.1466    1.1873 C   0  0  0  0  0  0  0  0  0  0  0  0
   -4.2274    1.1557    0.3958 C   0  0  0  0  0  0  0  0  0  0  0  0
   -4.7337   -0.0588   -0.0746 C   0  0  0  0  0  0  0  0  0  0  0  0
   -4.1047   -1.2650    0.2494 C   0  0  0  0  0  0  0  0  0  0  0  0
   -2.9617   -1.2593    1.0498 C   0  0  0  0  0  0  0  0  0  0  0  0
   -2.4403   -0.0506    1.5150 C   0  0  0  0  0  0  0  0  0  0  0  0
   -1.2666   -0.0081    2.3335 N   0  0  0  0  0  0  0  0  0  0  0  0
    0.0000    0.0000    1.7692 C   0  0  0  0  0  0  0  0  0  0  0  0
    0.0000    0.0000    0.0000 S   0  0  0  0  0  0  0  0  0  0  0  0
    1.0983    0.0000    2.4465 N   0  0  0  0  0  0  0  0  0  0  0  0
    1.1001   -0.0076    3.8402 C   0  0  0  0  0  0  0  0  0  0  0  0
    2.1395   -0.2467    4.4323 O   0  0  0  0  0  0  0  0  0  0  0  0
   -0.1919    0.2980    4.5195 C   0  0  0  0  0  0  0  0  0  0  0  0
   -0.4015    0.7405    5.8011 C   0  0  0  0  0  0  0  0  0  0  0  0
    0.4220    1.0390    6.9569 C   0  0  0  0  0  0  0  0  0  0  0  0
    1.6738    0.4590    7.1742 C   0  0  0  0  0  0  0  0  0  0  0  0
    2.4021    0.7006    8.3553 C   0  0  0  0  0  0  0  0  0  0  0  0
    1.8945    1.5303    9.3311 C   0  0  0  0  0  0  0  0  0  0  0  0
    0.6329    2.1627    9.1654 C   0  0  0  0  0  0  0  0  0  0  0  0
    0.1188    3.0295   10.1681 C   0  0  0  0  0  0  0  0  0  0  0  0
   -1.0966    3.6577   10.0082 C   0  0  0  0  0  0  0  0  0  0  0  0
   -1.8409    3.4432    8.8258 C   0  0  0  0  0  0  0  0  0  0  0  0
   -1.3663    2.6074    7.8339 C   0  0  0  0  0  0  0  0  0  0  0  0
   -0.1247    1.9279    7.9688 C   0  0  0  0  0  0  0  0  0  0  0  0
   -1.4460    0.1977    3.7209 C   0  0  0  0  0  0  0  0  0  0  0  0
   -2.5711    0.2888    4.1677 O   0  0  0  0  0  0  0  0  0  0  0  0
   -4.7012    2.1100    0.1605 H   0  0  0  0  0  0  0  0  0  0  0  0
   -5.6301   -0.0601   -0.6984 H   0  0  0  0  0  0  0  0  0  0  0  0
   -4.5066   -2.2108   -0.1182 H   0  0  0  0  0  0  0  0  0  0  0  0
   -2.4536   -2.1868    1.3184 H   0  0  0  0  0  0  0  0  0  0  0  0
    2.3064    0.0380   -0.2636 Au  0  0  0  0  0  0  0  0  0  0  0  0
   -1.4654    0.9288    5.9646 H   0  0  0  0  0  0  0  0  0  0  0  0
    2.0782   -0.1940    6.4050 H   0  0  0  0  0  0  0  0  0  0  0  0
    3.3725    0.2181    8.4907 H   0  0  0  0  0  0  0  0  0  0  0  0
    2.4562    1.7178   10.2501 H   0  0  0  0  0  0  0  0  0  0  0  0
    0.7131    3.1906   11.0711 H   0  0  0  0  0  0  0  0  0  0  0  0
   -1.4827    4.3223   10.7842 H   0  0  0  0  0  0  0  0  0  0  0  0
   -2.8003    3.9479    8.6903 H   0  0  0  0  0  0  0  0  0  0  0  0
   -1.9601    2.4883    6.9280 H   0  0  0  0  0  0  0  0  0  0  0  0
  2  7  1  0  0  0  0
  2  1  1  0  0  0  0
  3  2  2  0  0  0  0
  4  5  2  0  0  0  0
  4  3  1  0  0  0  0
  5  6  1  0  0  0  0
  6 31  1  0  0  0  0
  6  7  2  0  0  0  0
  7  8  1  0  0  0  0
  8 26  1  0  0  0  0
  9  8  1  0  0  0  0
  9 11  2  0  0  0  0
 10  9  1  0  0  0  0
 11 12  2  0  0  0  0
 12 13  2  0  0  0  0
 12 14  1  0  0  0  0
 14 15  2  0  0  0  0
 15 33  1  0  0  0  0
 15 16  1  0  0  0  0
 16 17  2  0  0  0  0
 16 25  1  0  0  0  0
 17 18  1  0  0  0  0
 18 35  1  0  0  0  0
 18 19  2  0  0  0  0
 19 36  1  0  0  0  0
 20 19  1  0  0  0  0
 20 21  2  0  0  0  0
 21 37  1  0  0  0  0
 22 21  1  0  0  0  0
 22 38  1  0  0  0  0
 23 22  2  0  0  0  0
 24 25  2  0  0  0  0
 24 23  1  0  0  0  0
 25 20  1  0  0  0  0
 26 27  2  0  0  0  0
 26 14  1  0  0  0  0
 28  3  1  0  0  0  0
 29  4  1  0  0  0  0
 30  5  1  0  0  0  0
 32 10  1  0  0  0  0
 34 17  1  0  0  0  0
 39 23  1  0  0  0  0
 40 24  1  0  0  0  0
M  END
