000-850-182.xyz
 OpenBabel07262113383D
O=C1N=C(S)N(C(=O)/C/1=C\c1ccc(o1)N1CCCC1)c1ccccc1C
 46 49  0  0  0  0  0  0  0  0999 V2000
   -3.0064   -2.2035    2.4242 C   0  0  0  0  0  0  0  0  0  0  0  0
   -3.3602   -0.8432    1.8915 C   0  0  0  0  0  0  0  0  0  0  0  0
   -4.5928   -0.5989    1.2631 C   0  0  0  0  0  0  0  0  0  0  0  0
   -4.9358    0.6766    0.7969 C   0  0  0  0  0  0  0  0  0  0  0  0
   -4.0521    1.7438    0.9656 C   0  0  0  0  0  0  0  0  0  0  0  0
   -2.8165    1.5208    1.5753 C   0  0  0  0  0  0  0  0  0  0  0  0
   -2.4667    0.2415    2.0093 C   0  0  0  0  0  0  0  0  0  0  0  0
   -1.1577    0.0356    2.5576 N   0  0  0  0  0  0  0  0  0  0  0  0
   -0.0000    0.0000    1.7844 C   0  0  0  0  0  0  0  0  0  0  0  0
    0.0000    0.0000    0.0000 S   0  0  0  0  0  0  0  0  0  0  0  0
    1.1930    0.0000    2.2574 N   0  0  0  0  0  0  0  0  0  0  0  0
    1.4468    0.0493    3.6294 C   0  0  0  0  0  0  0  0  0  0  0  0
    2.5839    0.1595    4.0536 O   0  0  0  0  0  0  0  0  0  0  0  0
    0.2661   -0.0807    4.5291 C   0  0  0  0  0  0  0  0  0  0  0  0
    0.5460   -0.1766    5.8841 C   0  0  0  0  0  0  0  0  0  0  0  0
   -0.2304   -0.2906    7.0414 C   0  0  0  0  0  0  0  0  0  0  0  0
   -1.5806   -0.3391    7.4075 C   0  0  0  0  0  0  0  0  0  0  0  0
   -1.6555   -0.4591    8.8021 C   0  0  0  0  0  0  0  0  0  0  0  0
   -0.3272   -0.4787    9.2554 C   0  0  0  0  0  0  0  0  0  0  0  0
    0.5225   -0.3800    8.2318 O   0  0  0  0  0  0  0  0  0  0  0  0
    0.1916   -0.5762   10.4879 N   0  0  0  0  0  0  0  0  0  0  0  0
    1.6293   -0.6215   10.7679 C   0  0  0  0  0  0  0  0  0  0  0  0
    1.6751   -1.0951   12.2245 C   0  0  0  0  0  0  0  0  0  0  0  0
    0.3829   -0.5216   12.8241 C   0  0  0  0  0  0  0  0  0  0  0  0
   -0.6352   -0.6797   11.6878 C   0  0  0  0  0  0  0  0  0  0  0  0
   -1.0747   -0.0624    3.9783 C   0  0  0  0  0  0  0  0  0  0  0  0
   -2.1192   -0.1051    4.6167 O   0  0  0  0  0  0  0  0  0  0  0  0
   -3.0643   -2.1959    3.5238 H   0  0  0  0  0  0  0  0  0  0  0  0
   -1.9767   -2.4842    2.1566 H   0  0  0  0  0  0  0  0  0  0  0  0
   -3.6903   -2.9725    2.0386 H   0  0  0  0  0  0  0  0  0  0  0  0
   -5.2989   -1.4255    1.1500 H   0  0  0  0  0  0  0  0  0  0  0  0
   -5.9016    0.8337    0.3112 H   0  0  0  0  0  0  0  0  0  0  0  0
   -4.3165    2.7434    0.6150 H   0  0  0  0  0  0  0  0  0  0  0  0
   -2.0950    2.3308    1.6924 H   0  0  0  0  0  0  0  0  0  0  0  0
   -2.0177   -0.8283   -0.7691 Au  0  0  0  0  0  0  0  0  0  0  0  0
    1.6235   -0.1560    6.0833 H   0  0  0  0  0  0  0  0  0  0  0  0
   -2.3892   -0.2849    6.6870 H   0  0  0  0  0  0  0  0  0  0  0  0
   -2.5471   -0.5275    9.4184 H   0  0  0  0  0  0  0  0  0  0  0  0
    2.1412   -1.2981   10.0676 H   0  0  0  0  0  0  0  0  0  0  0  0
    2.0792    0.3808   10.6461 H   0  0  0  0  0  0  0  0  0  0  0  0
    1.6536   -2.1965   12.2609 H   0  0  0  0  0  0  0  0  0  0  0  0
    2.5824   -0.7599   12.7463 H   0  0  0  0  0  0  0  0  0  0  0  0
    0.5168    0.5467   13.0597 H   0  0  0  0  0  0  0  0  0  0  0  0
    0.0651   -1.0302   13.7452 H   0  0  0  0  0  0  0  0  0  0  0  0
   -1.1447   -1.6610   11.7252 H   0  0  0  0  0  0  0  0  0  0  0  0
   -1.4142    0.1002   11.6981 H   0  0  0  0  0  0  0  0  0  0  0  0
  1 28  1  0  0  0  0
  2  7  1  0  0  0  0
  2  1  1  0  0  0  0
  3  2  2  0  0  0  0
  4  5  2  0  0  0  0
  4  3  1  0  0  0  0
  5  6  1  0  0  0  0
  6 34  1  0  0  0  0
  6  7  2  0  0  0  0
  7  8  1  0  0  0  0
  8 26  1  0  0  0  0
  9 11  2  0  0  0  0
  9  8  1  0  0  0  0
 10  9  1  0  0  0  0
 11 12  2  0  0  0  0
 12 13  2  0  0  0  0
 12 14  1  0  0  0  0
 14 15  2  0  0  0  0
 15 36  1  0  0  0  0
 15 16  1  0  0  0  0
 16 17  2  0  0  0  0
 16 20  1  0  0  0  0
 17 18  1  0  0  0  0
 18 19  2  0  0  0  0
 18 38  1  0  0  0  0
 19 21  1  0  0  0  0
 20 19  1  0  0  0  0
 21 22  1  0  0  0  0
 21 25  1  0  0  0  0
 22 23  1  0  0  0  0
 23 41  1  0  0  0  0
 23 42  1  0  0  0  0
 23 24  1  0  0  0  0
 24 43  1  0  0  0  0
 24 44  1  0  0  0  0
 25 46  1  0  0  0  0
 25 45  1  0  0  0  0
 25 24  1  0  0  0  0
 26 14  1  0  0  0  0
 26 27  2  0  0  0  0
 29  1  1  0  0  0  0
 30  1  1  0  0  0  0
 31  3  1  0  0  0  0
 32  4  1  0  0  0  0
 33  5  1  0  0  0  0
 35 10  1  0  0  0  0
 37 17  1  0  0  0  0
 39 22  1  0  0  0  0
 40 22  1  0  0  0  0
M  END
