000-718-978.xyz
 OpenBabel07262113333D
SC1=NC(=O)/C(=C/c2cccs2)/C(=O)N1c1ccccc1
 31 33  0  0  0  0  0  0  0  0999 V2000
    0.0000    0.0000    0.0000 S   0  0  0  0  0  0  0  0  0  0  0  0
    0.0000    0.0000    1.7707 C   0  0  0  0  0  0  0  0  0  0  0  0
   -1.1060    0.0001    2.4396 N   0  0  0  0  0  0  0  0  0  0  0  0
   -1.1060    0.0004    3.8302 C   0  0  0  0  0  0  0  0  0  0  0  0
   -2.1546    0.0005    4.4496 O   0  0  0  0  0  0  0  0  0  0  0  0
    0.2273    0.0005    4.5302 C   0  0  0  0  0  0  0  0  0  0  0  0
    0.1657    0.0011    5.9025 C   0  0  0  0  0  0  0  0  0  0  0  0
    1.1198    0.0013    6.9667 C   0  0  0  0  0  0  0  0  0  0  0  0
    2.5140    0.0004    7.0323 C   0  0  0  0  0  0  0  0  0  0  0  0
    3.0068    0.0010    8.3563 C   0  0  0  0  0  0  0  0  0  0  0  0
    2.0028    0.0024    9.3061 C   0  0  0  0  0  0  0  0  0  0  0  0
    0.4445    0.0029    8.5969 S   0  0  0  0  0  0  0  0  0  0  0  0
    1.4603    0.0000    3.7366 C   0  0  0  0  0  0  0  0  0  0  0  0
    2.6005   -0.0003    4.1643 O   0  0  0  0  0  0  0  0  0  0  0  0
    1.2665    0.0000    2.3322 N   0  0  0  0  0  0  0  0  0  0  0  0
    2.4428   -0.0002    1.5007 C   0  0  0  0  0  0  0  0  0  0  0  0
    3.0068   -1.2148    1.1028 C   0  0  0  0  0  0  0  0  0  0  0  0
    4.1412   -1.2122    0.2906 C   0  0  0  0  0  0  0  0  0  0  0  0
    4.7093   -0.0006   -0.1145 C   0  0  0  0  0  0  0  0  0  0  0  0
    4.1446    1.2111    0.2949 C   0  0  0  0  0  0  0  0  0  0  0  0
    3.0101    1.2142    1.1070 C   0  0  0  0  0  0  0  0  0  0  0  0
   -2.3080   -0.0007   -0.2594 Au  0  0  0  0  0  0  0  0  0  0  0  0
   -0.8797    0.0016    6.2364 H   0  0  0  0  0  0  0  0  0  0  0  0
    3.1197   -0.0007    6.1305 H   0  0  0  0  0  0  0  0  0  0  0  0
    4.0677    0.0005    8.6094 H   0  0  0  0  0  0  0  0  0  0  0  0
    2.1142    0.0031   10.3898 H   0  0  0  0  0  0  0  0  0  0  0  0
    2.5481   -2.1500    1.4282 H   0  0  0  0  0  0  0  0  0  0  0  0
    4.5832   -2.1592   -0.0266 H   0  0  0  0  0  0  0  0  0  0  0  0
    5.5971   -0.0008   -0.7511 H   0  0  0  0  0  0  0  0  0  0  0  0
    4.5894    2.1580   -0.0191 H   0  0  0  0  0  0  0  0  0  0  0  0
    2.5541    2.1496    1.4355 H   0  0  0  0  0  0  0  0  0  0  0  0
  1  2  1  0  0  0  0
  2 15  1  0  0  0  0
  2  3  2  0  0  0  0
  3  4  2  0  0  0  0
  4  5  2  0  0  0  0
  4  6  1  0  0  0  0
  6  7  2  0  0  0  0
  7 23  1  0  0  0  0
  7  8  1  0  0  0  0
  8  9  2  0  0  0  0
  8 12  1  0  0  0  0
  9 10  1  0  0  0  0
 10 25  1  0  0  0  0
 10 11  2  0  0  0  0
 11 26  1  0  0  0  0
 12 11  1  0  0  0  0
 13 14  2  0  0  0  0
 13  6  1  0  0  0  0
 15 13  1  0  0  0  0
 16 15  1  0  0  0  0
 17 27  1  0  0  0  0
 17 16  2  0  0  0  0
 18 17  1  0  0  0  0
 19 18  2  0  0  0  0
 19 20  1  0  0  0  0
 20 21  2  0  0  0  0
 21 31  1  0  0  0  0
 21 16  1  0  0  0  0
 22  1  1  0  0  0  0
 24  9  1  0  0  0  0
 28 18  1  0  0  0  0
 29 19  1  0  0  0  0
 30 20  1  0  0  0  0
M  END
