000-751-280.xyz
 OpenBabel07262113353D
COc1ccc(cc1OC)/C=C/1\C(=NC(=NC1=O)S)O
 32 33  0  0  0  0  0  0  0  0999 V2000
    3.0718    0.0225   11.6970 C   0  0  0  0  0  0  0  0  0  0  0  0
    3.6180    0.0354   10.3940 O   0  0  0  0  0  0  0  0  0  0  0  0
    2.7930    0.0284    9.3372 C   0  0  0  0  0  0  0  0  0  0  0  0
    1.3956    0.0094    9.4094 C   0  0  0  0  0  0  0  0  0  0  0  0
    0.6333    0.0039    8.2444 C   0  0  0  0  0  0  0  0  0  0  0  0
    1.2333    0.0156    6.9659 C   0  0  0  0  0  0  0  0  0  0  0  0
    0.3116    0.0077    5.8556 C   0  0  0  0  0  0  0  0  0  0  0  0
    0.3331    0.0050    4.4789 C   0  0  0  0  0  0  0  0  0  0  0  0
    1.4353    0.0024    3.5412 C   0  0  0  0  0  0  0  0  0  0  0  0
    2.6997    0.0002    3.9828 O   0  0  0  0  0  0  0  0  0  0  0  0
    1.2857    0.0000    2.2495 N   0  0  0  0  0  0  0  0  0  0  0  0
   -0.0000   -0.0000    1.7629 C   0  0  0  0  0  0  0  0  0  0  0  0
    0.0000    0.0000    0.0000 S   0  0  0  0  0  0  0  0  0  0  0  0
   -1.1070   -0.0005    2.4446 N   0  0  0  0  0  0  0  0  0  0  0  0
   -1.0454    0.0003    3.8307 C   0  0  0  0  0  0  0  0  0  0  0  0
   -2.0592   -0.0018    4.5074 O   0  0  0  0  0  0  0  0  0  0  0  0
    2.6523    0.0355    6.9043 C   0  0  0  0  0  0  0  0  0  0  0  0
    3.4229    0.0421    8.0560 C   0  0  0  0  0  0  0  0  0  0  0  0
    4.7735    0.0611    8.0770 O   0  0  0  0  0  0  0  0  0  0  0  0
    5.4628    0.0750    6.8473 C   0  0  0  0  0  0  0  0  0  0  0  0
    2.4692   -0.8852   11.8742 H   0  0  0  0  0  0  0  0  0  0  0  0
    2.4448    0.9120   11.8819 H   0  0  0  0  0  0  0  0  0  0  0  0
    3.9230    0.0312   12.3894 H   0  0  0  0  0  0  0  0  0  0  0  0
    0.8953   -0.0009   10.3768 H   0  0  0  0  0  0  0  0  0  0  0  0
   -0.4556   -0.0102    8.3199 H   0  0  0  0  0  0  0  0  0  0  0  0
   -0.7336    0.0027    6.1893 H   0  0  0  0  0  0  0  0  0  0  0  0
    3.2487   -0.0034    3.1774 H   0  0  0  0  0  0  0  0  0  0  0  0
   -2.2863    0.0007   -0.3383 Au  0  0  0  0  0  0  0  0  0  0  0  0
    3.1305    0.0456    5.9340 H   0  0  0  0  0  0  0  0  0  0  0  0
    5.2146    0.9712    6.2510 H   0  0  0  0  0  0  0  0  0  0  0  0
    5.2381   -0.8226    6.2439 H   0  0  0  0  0  0  0  0  0  0  0  0
    6.5332    0.0882    7.0897 H   0  0  0  0  0  0  0  0  0  0  0  0
  1 21  1  0  0  0  0
  1 22  1  0  0  0  0
  1 23  1  0  0  0  0
  2  1  1  0  0  0  0
  3  4  1  0  0  0  0
  3  2  1  0  0  0  0
  4 24  1  0  0  0  0
  5 25  1  0  0  0  0
  5  4  2  0  0  0  0
  6  5  1  0  0  0  0
  7 26  1  0  0  0  0
  7  6  1  0  0  0  0
  8  7  2  0  0  0  0
  9 10  1  0  0  0  0
  9  8  1  0  0  0  0
 11  9  2  0  0  0  0
 12 11  2  0  0  0  0
 12 14  2  0  0  0  0
 13 12  1  0  0  0  0
 14 15  2  0  0  0  0
 15  8  1  0  0  0  0
 15 16  2  0  0  0  0
 17  6  2  0  0  0  0
 17 18  1  0  0  0  0
 18 19  1  0  0  0  0
 18  3  2  0  0  0  0
 20 32  1  0  0  0  0
 20 19  1  0  0  0  0
 27 10  1  0  0  0  0
 28 13  1  0  0  0  0
 29 17  1  0  0  0  0
 30 20  1  0  0  0  0
 31 20  1  0  0  0  0
M  END
