000-776-696.xyz
 OpenBabel07262113363D
Fc1ccc(cc1)N1C(=NC(=O)/C(=C/c2c[nH]c3c2cc(Br)cc3)/C1=O)S
 38 41  0  0  0  0  0  0  0  0999 V2000
   -6.0873   -1.1744    0.2544 F   0  0  0  0  0  0  0  0  0  0  0  0
   -4.9070   -0.9043    0.8228 C   0  0  0  0  0  0  0  0  0  0  0  0
   -4.6795    0.3756    1.3329 C   0  0  0  0  0  0  0  0  0  0  0  0
   -3.4444    0.6585    1.9203 C   0  0  0  0  0  0  0  0  0  0  0  0
   -2.4551   -0.3317    1.9821 C   0  0  0  0  0  0  0  0  0  0  0  0
   -2.7134   -1.6141    1.4930 C   0  0  0  0  0  0  0  0  0  0  0  0
   -3.9429   -1.9057    0.9000 C   0  0  0  0  0  0  0  0  0  0  0  0
   -1.1709   -0.0348    2.5397 N   0  0  0  0  0  0  0  0  0  0  0  0
   -0.0000    0.0000    1.7809 C   0  0  0  0  0  0  0  0  0  0  0  0
    0.0000    0.0000    0.0000 S   0  0  0  0  0  0  0  0  0  0  0  0
    1.1848   -0.0000    2.2713 N   0  0  0  0  0  0  0  0  0  0  0  0
    1.4121   -0.0402    3.6464 C   0  0  0  0  0  0  0  0  0  0  0  0
    2.5293   -0.2132    4.0943 O   0  0  0  0  0  0  0  0  0  0  0  0
    0.2235    0.1981    4.5286 C   0  0  0  0  0  0  0  0  0  0  0  0
    0.5014    0.3924    5.8638 C   0  0  0  0  0  0  0  0  0  0  0  0
   -0.2568    0.6324    7.0444 C   0  0  0  0  0  0  0  0  0  0  0  0
   -1.6395    0.7165    7.2656 C   0  0  0  0  0  0  0  0  0  0  0  0
   -1.8763    0.9575    8.5795 N   0  0  0  0  0  0  0  0  0  0  0  0
   -0.6827    1.0431    9.2853 C   0  0  0  0  0  0  0  0  0  0  0  0
   -0.4436    1.2755   10.6418 C   0  0  0  0  0  0  0  0  0  0  0  0
    0.8817    1.3067   11.0683 C   0  0  0  0  0  0  0  0  0  0  0  0
    1.9285    1.1082   10.1457 C   0  0  0  0  0  0  0  0  0  0  0  0
    3.7255    1.1609   10.7828 Br  0  0  0  0  0  0  0  0  0  0  0  0
    1.6946    0.8765    8.7927 C   0  0  0  0  0  0  0  0  0  0  0  0
    0.3638    0.8424    8.3511 C   0  0  0  0  0  0  0  0  0  0  0  0
   -1.1160    0.1610    3.9508 C   0  0  0  0  0  0  0  0  0  0  0  0
   -2.1684    0.2517    4.5648 O   0  0  0  0  0  0  0  0  0  0  0  0
   -5.4697    1.1256    1.2730 H   0  0  0  0  0  0  0  0  0  0  0  0
   -3.2417    1.6461    2.3348 H   0  0  0  0  0  0  0  0  0  0  0  0
   -1.9360   -2.3769    1.5516 H   0  0  0  0  0  0  0  0  0  0  0  0
   -4.1625   -2.8954    0.4972 H   0  0  0  0  0  0  0  0  0  0  0  0
   -1.9668    0.9796   -0.7198 Au  0  0  0  0  0  0  0  0  0  0  0  0
    1.5823    0.3462    6.0402 H   0  0  0  0  0  0  0  0  0  0  0  0
   -2.4326    0.6062    6.5338 H   0  0  0  0  0  0  0  0  0  0  0  0
   -2.7984    1.0533    8.9859 H   0  0  0  0  0  0  0  0  0  0  0  0
   -1.2603    1.4285   11.3505 H   0  0  0  0  0  0  0  0  0  0  0  0
    1.1170    1.4848   12.1180 H   0  0  0  0  0  0  0  0  0  0  0  0
    2.5273    0.7269    8.1043 H   0  0  0  0  0  0  0  0  0  0  0  0
  1  2  1  0  0  0  0
  2  7  2  0  0  0  0
  2  3  1  0  0  0  0
  3  4  2  0  0  0  0
  4  5  1  0  0  0  0
  4 29  1  0  0  0  0
  5  8  1  0  0  0  0
  6 30  1  0  0  0  0
  6  5  2  0  0  0  0
  7  6  1  0  0  0  0
  8 26  1  0  0  0  0
  9 11  2  0  0  0  0
  9  8  1  0  0  0  0
 10  9  1  0  0  0  0
 11 12  2  0  0  0  0
 12 13  2  0  0  0  0
 12 14  1  0  0  0  0
 14 15  2  0  0  0  0
 15 33  1  0  0  0  0
 15 16  1  0  0  0  0
 16 17  2  0  0  0  0
 16 25  1  0  0  0  0
 17 18  1  0  0  0  0
 18 35  1  0  0  0  0
 18 19  1  0  0  0  0
 19 20  2  0  0  0  0
 20 21  1  0  0  0  0
 20 36  1  0  0  0  0
 21 37  1  0  0  0  0
 22 23  1  0  0  0  0
 22 21  2  0  0  0  0
 24 22  1  0  0  0  0
 25 24  2  0  0  0  0
 25 19  1  0  0  0  0
 26 14  1  0  0  0  0
 26 27  2  0  0  0  0
 28  3  1  0  0  0  0
 31  7  1  0  0  0  0
 32 10  1  0  0  0  0
 34 17  1  0  0  0  0
 38 24  1  0  0  0  0
M  END
