000-747-680.xyz
 OpenBabel07262113343D
SC1=NC(=O)/C(=C/c2cc(n(c2C)c2ccc(cc2)F)C)/C(=N1)O
 38 40  0  0  0  0  0  0  0  0999 V2000
   -3.4738   -0.0128    9.3917 C   0  0  0  0  0  0  0  0  0  0  0  0
   -2.2088   -0.0087    8.6032 C   0  0  0  0  0  0  0  0  0  0  0  0
   -1.9873   -0.0077    7.2537 C   0  0  0  0  0  0  0  0  0  0  0  0
   -0.5592   -0.0042    7.0278 C   0  0  0  0  0  0  0  0  0  0  0  0
    0.2461   -0.0022    5.8550 C   0  0  0  0  0  0  0  0  0  0  0  0
    0.0578   -0.0013    4.4881 C   0  0  0  0  0  0  0  0  0  0  0  0
   -1.1652   -0.0006    3.7270 C   0  0  0  0  0  0  0  0  0  0  0  0
   -2.3412   -0.0001    4.3631 O   0  0  0  0  0  0  0  0  0  0  0  0
   -1.2100    0.0001    2.4226 N   0  0  0  0  0  0  0  0  0  0  0  0
    0.0000   -0.0000    1.7705 C   0  0  0  0  0  0  0  0  0  0  0  0
    0.0000    0.0000    0.0000 S   0  0  0  0  0  0  0  0  0  0  0  0
    1.1884   -0.0000    2.2844 N   0  0  0  0  0  0  0  0  0  0  0  0
    1.3296   -0.0003    3.6660 C   0  0  0  0  0  0  0  0  0  0  0  0
    2.4269    0.0001    4.1983 O   0  0  0  0  0  0  0  0  0  0  0  0
    0.0461   -0.0032    8.3093 C   0  0  0  0  0  0  0  0  0  0  0  0
    1.4783    0.0010    8.7213 C   0  0  0  0  0  0  0  0  0  0  0  0
   -0.9552   -0.0059    9.2370 N   0  0  0  0  0  0  0  0  0  0  0  0
   -0.7639   -0.0056   10.6514 C   0  0  0  0  0  0  0  0  0  0  0  0
   -0.6608   -1.2181   11.3420 C   0  0  0  0  0  0  0  0  0  0  0  0
   -0.4775   -1.2229   12.7250 C   0  0  0  0  0  0  0  0  0  0  0  0
   -0.4013   -0.0048   13.3981 C   0  0  0  0  0  0  0  0  0  0  0  0
   -0.2263   -0.0044   14.7230 F   0  0  0  0  0  0  0  0  0  0  0  0
   -0.5030    1.2130   12.7276 C   0  0  0  0  0  0  0  0  0  0  0  0
   -0.6858    1.2074   11.3446 C   0  0  0  0  0  0  0  0  0  0  0  0
   -3.5494   -0.8983   10.0446 H   0  0  0  0  0  0  0  0  0  0  0  0
   -4.3340   -0.0168    8.7090 H   0  0  0  0  0  0  0  0  0  0  0  0
   -3.5564    0.8733   10.0430 H   0  0  0  0  0  0  0  0  0  0  0  0
   -2.7492   -0.0095    6.4859 H   0  0  0  0  0  0  0  0  0  0  0  0
    1.3224   -0.0014    6.0610 H   0  0  0  0  0  0  0  0  0  0  0  0
   -3.0154    0.0008    3.6607 H   0  0  0  0  0  0  0  0  0  0  0  0
   -2.2365    0.0000   -0.5393 Au  0  0  0  0  0  0  0  0  0  0  0  0
    1.7211   -0.8853    9.3300 H   0  0  0  0  0  0  0  0  0  0  0  0
    1.7136    0.8848    9.3365 H   0  0  0  0  0  0  0  0  0  0  0  0
    2.1427    0.0068    7.8494 H   0  0  0  0  0  0  0  0  0  0  0  0
   -0.7247   -2.1564   10.7880 H   0  0  0  0  0  0  0  0  0  0  0  0
   -0.3930   -2.1534   13.2884 H   0  0  0  0  0  0  0  0  0  0  0  0
   -0.4377    2.1439   13.2931 H   0  0  0  0  0  0  0  0  0  0  0  0
   -0.7688    2.1453   10.7926 H   0  0  0  0  0  0  0  0  0  0  0  0
  1 27  1  0  0  0  0
  1 25  1  0  0  0  0
  2 17  1  0  0  0  0
  2  1  1  0  0  0  0
  3  2  2  0  0  0  0
  4  3  1  0  0  0  0
  4 15  2  0  0  0  0
  5 29  1  0  0  0  0
  5  4  1  0  0  0  0
  6  5  2  0  0  0  0
  7  8  1  0  0  0  0
  7  6  1  0  0  0  0
  9  7  2  0  0  0  0
 10 12  2  0  0  0  0
 10  9  2  0  0  0  0
 11 10  1  0  0  0  0
 12 13  2  0  0  0  0
 13 14  2  0  0  0  0
 13  6  1  0  0  0  0
 15 16  1  0  0  0  0
 15 17  1  0  0  0  0
 16 32  1  0  0  0  0
 16 33  1  0  0  0  0
 17 18  1  0  0  0  0
 18 19  2  0  0  0  0
 18 24  1  0  0  0  0
 19 20  1  0  0  0  0
 20 36  1  0  0  0  0
 20 21  2  0  0  0  0
 21 22  1  0  0  0  0
 23 37  1  0  0  0  0
 23 21  1  0  0  0  0
 24 23  2  0  0  0  0
 26  1  1  0  0  0  0
 28  3  1  0  0  0  0
 30  8  1  0  0  0  0
 31 11  1  0  0  0  0
 34 16  1  0  0  0  0
 35 19  1  0  0  0  0
 38 24  1  0  0  0  0
M  END
