000-784-530.xyz
 OpenBabel07262113363D
CN1C(=NC(=O)/C(=C\c2cc(n(c2C)c2ccc(cc2)N2CCOCC2)C)/C1=O)S
 54 57  0  0  0  0  0  0  0  0999 V2000
   -2.4705    0.0005    1.5564 C   0  0  0  0  0  0  0  0  0  0  0  0
   -1.2491   -0.0001    2.3582 N   0  0  0  0  0  0  0  0  0  0  0  0
   -0.0000   -0.0000    1.7763 C   0  0  0  0  0  0  0  0  0  0  0  0
    0.0000    0.0000    0.0000 S   0  0  0  0  0  0  0  0  0  0  0  0
    1.1236    0.0000    2.4194 N   0  0  0  0  0  0  0  0  0  0  0  0
    1.1749   -0.0002    3.8146 C   0  0  0  0  0  0  0  0  0  0  0  0
    2.2650    0.0005    4.3661 O   0  0  0  0  0  0  0  0  0  0  0  0
   -0.1175   -0.0013    4.5372 C   0  0  0  0  0  0  0  0  0  0  0  0
   -0.2988   -0.0024    5.9070 C   0  0  0  0  0  0  0  0  0  0  0  0
    0.5456   -0.0024    7.0507 C   0  0  0  0  0  0  0  0  0  0  0  0
    1.9823   -0.0008    7.2140 C   0  0  0  0  0  0  0  0  0  0  0  0
    2.2571   -0.0010    8.5535 C   0  0  0  0  0  0  0  0  0  0  0  0
    3.5535   -0.0042    9.2892 C   0  0  0  0  0  0  0  0  0  0  0  0
    1.0308   -0.0028    9.2417 N   0  0  0  0  0  0  0  0  0  0  0  0
   -0.0065   -0.0036    8.3574 C   0  0  0  0  0  0  0  0  0  0  0  0
   -1.4204   -0.0023    8.8300 C   0  0  0  0  0  0  0  0  0  0  0  0
    0.8988   -0.0042   10.6629 C   0  0  0  0  0  0  0  0  0  0  0  0
    0.8904    1.1980   11.3765 C   0  0  0  0  0  0  0  0  0  0  0  0
    0.7636    1.2040   12.7621 C   0  0  0  0  0  0  0  0  0  0  0  0
    0.6470   -0.0069   13.4887 C   0  0  0  0  0  0  0  0  0  0  0  0
    0.6619   -1.2164   12.7508 C   0  0  0  0  0  0  0  0  0  0  0  0
    0.7834   -1.2077   11.3647 C   0  0  0  0  0  0  0  0  0  0  0  0
    0.5243   -0.0081   14.8616 N   0  0  0  0  0  0  0  0  0  0  0  0
    0.1327   -1.2014   15.5965 C   0  0  0  0  0  0  0  0  0  0  0  0
   -0.5476   -0.8055   16.9022 C   0  0  0  0  0  0  0  0  0  0  0  0
    0.2702   -0.0113   17.7388 O   0  0  0  0  0  0  0  0  0  0  0  0
    1.2227    0.7835   17.0604 C   0  0  0  0  0  0  0  0  0  0  0  0
    0.7822    1.1832   15.6566 C   0  0  0  0  0  0  0  0  0  0  0  0
   -1.3810   -0.0012    3.7688 C   0  0  0  0  0  0  0  0  0  0  0  0
   -2.4973   -0.0018    4.2641 O   0  0  0  0  0  0  0  0  0  0  0  0
   -2.5127    0.8957    0.9185 H   0  0  0  0  0  0  0  0  0  0  0  0
   -2.5140   -0.8950    0.9189 H   0  0  0  0  0  0  0  0  0  0  0  0
   -3.3141    0.0011    2.2548 H   0  0  0  0  0  0  0  0  0  0  0  0
    2.3204   -0.0011   -0.1964 Au  0  0  0  0  0  0  0  0  0  0  0  0
   -1.3646   -0.0035    6.1542 H   0  0  0  0  0  0  0  0  0  0  0  0
    2.6904   -0.0007    6.3941 H   0  0  0  0  0  0  0  0  0  0  0  0
    3.6539   -0.8873    9.9424 H   0  0  0  0  0  0  0  0  0  0  0  0
    3.6650    0.8836    9.9342 H   0  0  0  0  0  0  0  0  0  0  0  0
    4.3829   -0.0124    8.5694 H   0  0  0  0  0  0  0  0  0  0  0  0
   -1.6246    0.8693    9.4731 H   0  0  0  0  0  0  0  0  0  0  0  0
   -1.6426   -0.8988    9.4319 H   0  0  0  0  0  0  0  0  0  0  0  0
   -2.1209    0.0237    7.9868 H   0  0  0  0  0  0  0  0  0  0  0  0
    0.9733    2.1410   10.8319 H   0  0  0  0  0  0  0  0  0  0  0  0
    0.7316    2.1614   13.2803 H   0  0  0  0  0  0  0  0  0  0  0  0
    0.6034   -2.1749   13.2647 H   0  0  0  0  0  0  0  0  0  0  0  0
    0.8025   -2.1498   10.8126 H   0  0  0  0  0  0  0  0  0  0  0  0
   -0.5865   -1.7855   15.0009 H   0  0  0  0  0  0  0  0  0  0  0  0
    0.9971   -1.8635   15.8031 H   0  0  0  0  0  0  0  0  0  0  0  0
   -0.8171   -1.7116   17.4673 H   0  0  0  0  0  0  0  0  0  0  0  0
   -1.4880   -0.2697   16.6644 H   0  0  0  0  0  0  0  0  0  0  0  0
    1.3900    1.6879   17.6662 H   0  0  0  0  0  0  0  0  0  0  0  0
    2.1898    0.2469   16.9896 H   0  0  0  0  0  0  0  0  0  0  0  0
    1.5951    1.7678   15.1977 H   0  0  0  0  0  0  0  0  0  0  0  0
   -0.1046    1.8459   15.7102 H   0  0  0  0  0  0  0  0  0  0  0  0
  1 33  1  0  0  0  0
  1  2  1  0  0  0  0
  2 29  1  0  0  0  0
  3  2  1  0  0  0  0
  3  5  2  0  0  0  0
  4  3  1  0  0  0  0
  5  6  2  0  0  0  0
  6  7  2  0  0  0  0
  6  8  1  0  0  0  0
  8  9  2  0  0  0  0
  9 35  1  0  0  0  0
  9 10  1  0  0  0  0
 10 11  1  0  0  0  0
 10 15  2  0  0  0  0
 11 12  2  0  0  0  0
 12 14  1  0  0  0  0
 12 13  1  0  0  0  0
 13 38  1  0  0  0  0
 13 37  1  0  0  0  0
 14 17  1  0  0  0  0
 15 16  1  0  0  0  0
 15 14  1  0  0  0  0
 16 41  1  0  0  0  0
 16 40  1  0  0  0  0
 17 22  2  0  0  0  0
 17 18  1  0  0  0  0
 18 19  2  0  0  0  0
 19 44  1  0  0  0  0
 19 20  1  0  0  0  0
 20 23  1  0  0  0  0
 21 45  1  0  0  0  0
 21 20  2  0  0  0  0
 22 21  1  0  0  0  0
 23 24  1  0  0  0  0
 23 28  1  0  0  0  0
 24 48  1  0  0  0  0
 24 25  1  0  0  0  0
 25 49  1  0  0  0  0
 25 26  1  0  0  0  0
 27 51  1  0  0  0  0
 27 26  1  0  0  0  0
 28 54  1  0  0  0  0
 28 27  1  0  0  0  0
 29 30  2  0  0  0  0
 29  8  1  0  0  0  0
 31  1  1  0  0  0  0
 32  1  1  0  0  0  0
 34  4  1  0  0  0  0
 36 11  1  0  0  0  0
 39 13  1  0  0  0  0
 42 16  1  0  0  0  0
 43 18  1  0  0  0  0
 46 22  1  0  0  0  0
 47 24  1  0  0  0  0
 50 25  1  0  0  0  0
 52 27  1  0  0  0  0
 53 28  1  0  0  0  0
M  END
