000-753-109.xyz
 OpenBabel07262113353D
Oc1cccc(c1)/C=C/1\N=C(N=C1O)S
 23 24  0  0  0  0  0  0  0  0999 V2000
    1.8989    0.0001    4.5632 O   0  0  0  0  0  0  0  0  0  0  0  0
    0.9685    0.0001    3.6146 C   0  0  0  0  0  0  0  0  0  0  0  0
    1.2612    0.0000    2.3504 N   0  0  0  0  0  0  0  0  0  0  0  0
   -0.0000    0.0000    1.7412 C   0  0  0  0  0  0  0  0  0  0  0  0
    0.0000    0.0000    0.0000 S   0  0  0  0  0  0  0  0  0  0  0  0
   -1.0532    0.0000    2.5299 N   0  0  0  0  0  0  0  0  0  0  0  0
   -0.5110    0.0002    3.8083 C   0  0  0  0  0  0  0  0  0  0  0  0
   -1.1459    0.0004    5.0134 C   0  0  0  0  0  0  0  0  0  0  0  0
   -2.5700    0.0003    5.3048 C   0  0  0  0  0  0  0  0  0  0  0  0
   -3.5570   -0.0007    4.2923 C   0  0  0  0  0  0  0  0  0  0  0  0
   -4.9017   -0.0008    4.6481 C   0  0  0  0  0  0  0  0  0  0  0  0
   -5.2961    0.0002    5.9908 C   0  0  0  0  0  0  0  0  0  0  0  0
   -4.3246    0.0012    7.0010 C   0  0  0  0  0  0  0  0  0  0  0  0
   -4.6380    0.0022    8.3222 O   0  0  0  0  0  0  0  0  0  0  0  0
   -2.9705    0.0013    6.6547 C   0  0  0  0  0  0  0  0  0  0  0  0
    1.4820    0.0001    5.4361 H   0  0  0  0  0  0  0  0  0  0  0  0
   -2.2737    0.0003   -0.3860 Au  0  0  0  0  0  0  0  0  0  0  0  0
   -0.5032    0.0006    5.9021 H   0  0  0  0  0  0  0  0  0  0  0  0
   -3.2406   -0.0015    3.2508 H   0  0  0  0  0  0  0  0  0  0  0  0
   -5.6680   -0.0016    3.8692 H   0  0  0  0  0  0  0  0  0  0  0  0
   -6.3578    0.0001    6.2561 H   0  0  0  0  0  0  0  0  0  0  0  0
   -5.5984    0.0021    8.4258 H   0  0  0  0  0  0  0  0  0  0  0  0
   -2.2306    0.0021    7.4579 H   0  0  0  0  0  0  0  0  0  0  0  0
  1 16  1  0  0  0  0
  2  7  1  0  0  0  0
  2  1  1  0  0  0  0
  3  2  2  0  0  0  0
  4  3  2  0  0  0  0
  4  6  2  0  0  0  0
  5  4  1  0  0  0  0
  6  7  2  0  0  0  0
  7  8  1  0  0  0  0
  8  9  1  0  0  0  0
  8 18  1  0  0  0  0
  9 15  2  0  0  0  0
 10 11  2  0  0  0  0
 10  9  1  0  0  0  0
 11 12  1  0  0  0  0
 12 21  1  0  0  0  0
 12 13  2  0  0  0  0
 13 14  1  0  0  0  0
 14 22  1  0  0  0  0
 15 13  1  0  0  0  0
 15 23  1  0  0  0  0
 17  5  1  0  0  0  0
 19 10  1  0  0  0  0
 20 11  1  0  0  0  0
M  RAD  1   8   2
M  END
