000-888-936.xyz
 OpenBabel07262113383D
SC1=NC(=O)/C(=C\c2ccccc2C(F)(F)F)/S1
 24 25  0  0  0  0  0  0  0  0999 V2000
   -0.1274    2.7453    5.3779 F   0  0  0  0  0  0  0  0  0  0  0  0
    0.5967    2.6049    6.5036 C   0  0  0  0  0  0  0  0  0  0  0  0
    0.3085    3.6548    7.2902 F   0  0  0  0  0  0  0  0  0  0  0  0
    1.8939    2.7238    6.1474 F   0  0  0  0  0  0  0  0  0  0  0  0
    0.3302    1.2893    7.1941 C   0  0  0  0  0  0  0  0  0  0  0  0
   -0.3154    1.2777    8.4330 C   0  0  0  0  0  0  0  0  0  0  0  0
   -0.5856    0.0693    9.0765 C   0  0  0  0  0  0  0  0  0  0  0  0
   -0.2068   -1.1327    8.4780 C   0  0  0  0  0  0  0  0  0  0  0  0
    0.4371   -1.1242    7.2398 C   0  0  0  0  0  0  0  0  0  0  0  0
    0.7089    0.0799    6.5795 C   0  0  0  0  0  0  0  0  0  0  0  0
    1.4163    0.0536    5.2711 C   0  0  0  0  0  0  0  0  0  0  0  0
    0.7944    0.0127    4.0822 C   0  0  0  0  0  0  0  0  0  0  0  0
    1.6143   -0.0000    2.5138 S   0  0  0  0  0  0  0  0  0  0  0  0
    0.0000    0.0000    1.7363 C   0  0  0  0  0  0  0  0  0  0  0  0
    0.0000    0.0000    0.0000 S   0  0  0  0  0  0  0  0  0  0  0  0
   -1.0364    0.0005    2.5037 N   0  0  0  0  0  0  0  0  0  0  0  0
   -0.7120   -0.0026    3.8690 C   0  0  0  0  0  0  0  0  0  0  0  0
   -1.5194   -0.0225    4.7653 O   0  0  0  0  0  0  0  0  0  0  0  0
   -0.6067    2.2229    8.8914 H   0  0  0  0  0  0  0  0  0  0  0  0
   -1.0922    0.0697   10.0439 H   0  0  0  0  0  0  0  0  0  0  0  0
   -0.4165   -2.0838    8.9727 H   0  0  0  0  0  0  0  0  0  0  0  0
    0.7247   -2.0641    6.7643 H   0  0  0  0  0  0  0  0  0  0  0  0
    2.5113    0.0791    5.3011 H   0  0  0  0  0  0  0  0  0  0  0  0
   -2.3003    0.0193   -0.3051 Au  0  0  0  0  0  0  0  0  0  0  0  0
  1  2  1  0  0  0  0
  2  5  1  0  0  0  0
  2  3  1  0  0  0  0
  4  2  1  0  0  0  0
  5  6  1  0  0  0  0
  6 19  1  0  0  0  0
  6  7  2  0  0  0  0
  7 20  1  0  0  0  0
  8 21  1  0  0  0  0
  8  7  1  0  0  0  0
  9  8  2  0  0  0  0
 10  5  2  0  0  0  0
 10  9  1  0  0  0  0
 11 23  1  0  0  0  0
 11 10  1  0  0  0  0
 12 11  2  0  0  0  0
 13 12  1  0  0  0  0
 14 16  2  0  0  0  0
 14 13  1  0  0  0  0
 15 14  1  0  0  0  0
 16 17  2  0  0  0  0
 17 12  1  0  0  0  0
 17 18  2  0  0  0  0
 22  9  1  0  0  0  0
 24 15  1  0  0  0  0
M  END
