000-759-397.xyz
 OpenBabel07262113353D
Fc1ccc(cc1)N1C(=NC(=O)/C(=C/c2cc(n(c2C)C(C)C)C)/C1=O)S
 47 49  0  0  0  0  0  0  0  0999 V2000
   -2.4526    1.0649   11.3132 C   0  0  0  0  0  0  0  0  0  0  0  0
   -1.6839   -0.0585   10.6133 C   0  0  0  0  0  0  0  0  0  0  0  0
   -2.0656   -1.4547   11.1139 C   0  0  0  0  0  0  0  0  0  0  0  0
   -1.7545    0.0231    9.1460 N   0  0  0  0  0  0  0  0  0  0  0  0
   -2.9175    0.0205    8.3528 C   0  0  0  0  0  0  0  0  0  0  0  0
   -4.3151    0.0544    8.8821 C   0  0  0  0  0  0  0  0  0  0  0  0
   -2.5304    0.0151    7.0399 C   0  0  0  0  0  0  0  0  0  0  0  0
   -1.0911    0.0110    6.9914 C   0  0  0  0  0  0  0  0  0  0  0  0
   -0.1628    0.0074    5.9141 C   0  0  0  0  0  0  0  0  0  0  0  0
   -0.2289    0.0034    4.5357 C   0  0  0  0  0  0  0  0  0  0  0  0
    1.0991    0.0005    3.8380 C   0  0  0  0  0  0  0  0  0  0  0  0
    2.1540   -0.0009    4.4513 O   0  0  0  0  0  0  0  0  0  0  0  0
    1.1047   -0.0000    2.4434 N   0  0  0  0  0  0  0  0  0  0  0  0
    0.0000    0.0000    1.7752 C   0  0  0  0  0  0  0  0  0  0  0  0
    0.0000    0.0000    0.0000 S   0  0  0  0  0  0  0  0  0  0  0  0
   -1.2642    0.0001    2.3353 N   0  0  0  0  0  0  0  0  0  0  0  0
   -1.4596    0.0018    3.7477 C   0  0  0  0  0  0  0  0  0  0  0  0
   -2.6048    0.0017    4.1619 O   0  0  0  0  0  0  0  0  0  0  0  0
   -2.4380   -0.0011    1.5067 C   0  0  0  0  0  0  0  0  0  0  0  0
   -3.0058   -1.2146    1.1077 C   0  0  0  0  0  0  0  0  0  0  0  0
   -4.1418   -1.2213    0.3003 C   0  0  0  0  0  0  0  0  0  0  0  0
   -4.6960   -0.0034   -0.0891 C   0  0  0  0  0  0  0  0  0  0  0  0
   -5.7869   -0.0044   -0.8657 F   0  0  0  0  0  0  0  0  0  0  0  0
   -4.1490    1.2157    0.3071 C   0  0  0  0  0  0  0  0  0  0  0  0
   -3.0128    1.2113    1.1143 C   0  0  0  0  0  0  0  0  0  0  0  0
   -0.6523    0.0113    8.3402 C   0  0  0  0  0  0  0  0  0  0  0  0
    0.7399   -0.0099    8.8802 C   0  0  0  0  0  0  0  0  0  0  0  0
   -3.5400    0.9228   11.2663 H   0  0  0  0  0  0  0  0  0  0  0  0
   -2.1682    1.0917   12.3762 H   0  0  0  0  0  0  0  0  0  0  0  0
   -2.2097    2.0413   10.8680 H   0  0  0  0  0  0  0  0  0  0  0  0
   -0.6242    0.0934   10.8528 H   0  0  0  0  0  0  0  0  0  0  0  0
   -1.8934   -1.5264   12.1990 H   0  0  0  0  0  0  0  0  0  0  0  0
   -1.4595   -2.2258   10.6153 H   0  0  0  0  0  0  0  0  0  0  0  0
   -3.1252   -1.6801   10.9253 H   0  0  0  0  0  0  0  0  0  0  0  0
   -4.5148   -0.7258    9.6329 H   0  0  0  0  0  0  0  0  0  0  0  0
   -5.0057   -0.1083    8.0435 H   0  0  0  0  0  0  0  0  0  0  0  0
   -4.5734    1.0248    9.3370 H   0  0  0  0  0  0  0  0  0  0  0  0
   -3.1802    0.0188    6.1733 H   0  0  0  0  0  0  0  0  0  0  0  0
    0.8862    0.0078    6.2270 H   0  0  0  0  0  0  0  0  0  0  0  0
    2.3088    0.0030   -0.2501 Au  0  0  0  0  0  0  0  0  0  0  0  0
   -2.5478   -2.1510    1.4296 H   0  0  0  0  0  0  0  0  0  0  0  0
   -4.6045   -2.1521   -0.0311 H   0  0  0  0  0  0  0  0  0  0  0  0
   -4.6173    2.1455   -0.0191 H   0  0  0  0  0  0  0  0  0  0  0  0
   -2.5603    2.1485    1.4413 H   0  0  0  0  0  0  0  0  0  0  0  0
    0.9336   -0.9069    9.4919 H   0  0  0  0  0  0  0  0  0  0  0  0
    1.4698   -0.0104    8.0623 H   0  0  0  0  0  0  0  0  0  0  0  0
    0.9529    0.8717    9.5079 H   0  0  0  0  0  0  0  0  0  0  0  0
  1 29  1  0  0  0  0
  2 31  1  0  0  0  0
  2  3  1  0  0  0  0
  2  1  1  0  0  0  0
  3 32  1  0  0  0  0
  4  2  1  0  0  0  0
  5  6  1  0  0  0  0
  5  4  1  0  0  0  0
  6 37  1  0  0  0  0
  6 35  1  0  0  0  0
  7  5  2  0  0  0  0
  8  7  1  0  0  0  0
  8 26  2  0  0  0  0
  9 39  1  0  0  0  0
  9  8  1  0  0  0  0
 10  9  2  0  0  0  0
 11 12  2  0  0  0  0
 11 10  1  0  0  0  0
 13 11  2  0  0  0  0
 14 16  1  0  0  0  0
 14 13  2  0  0  0  0
 15 14  1  0  0  0  0
 16 17  1  0  0  0  0
 17 18  2  0  0  0  0
 17 10  1  0  0  0  0
 19 16  1  0  0  0  0
 20 41  1  0  0  0  0
 20 19  2  0  0  0  0
 21 20  1  0  0  0  0
 22 21  2  0  0  0  0
 22 24  1  0  0  0  0
 23 22  1  0  0  0  0
 24 25  2  0  0  0  0
 25 44  1  0  0  0  0
 25 19  1  0  0  0  0
 26 27  1  0  0  0  0
 26  4  1  0  0  0  0
 27 45  1  0  0  0  0
 27 47  1  0  0  0  0
 28  1  1  0  0  0  0
 30  1  1  0  0  0  0
 33  3  1  0  0  0  0
 34  3  1  0  0  0  0
 36  6  1  0  0  0  0
 38  7  1  0  0  0  0
 40 15  1  0  0  0  0
 42 21  1  0  0  0  0
 43 24  1  0  0  0  0
 46 27  1  0  0  0  0
M  END
