000-888-930.xyz
 OpenBabel07262113383D
FC(c1ccc(cc1)/C=C\1/SC(=NC1=O)S)(F)F
 24 25  0  0  0  0  0  0  0  0999 V2000
    0.6913    0.4947   11.7589 F   0  0  0  0  0  0  0  0  0  0  0  0
   -0.2719   -0.0626   11.0037 C   0  0  0  0  0  0  0  0  0  0  0  0
   -0.4145   -1.3341   11.4249 F   0  0  0  0  0  0  0  0  0  0  0  0
   -1.4230    0.5733   11.2788 F   0  0  0  0  0  0  0  0  0  0  0  0
    0.0636   -0.0048    9.5356 C   0  0  0  0  0  0  0  0  0  0  0  0
   -0.9600    0.0014    8.5817 C   0  0  0  0  0  0  0  0  0  0  0  0
   -0.6634    0.0019    7.2216 C   0  0  0  0  0  0  0  0  0  0  0  0
    0.6787   -0.0027    6.7831 C   0  0  0  0  0  0  0  0  0  0  0  0
    1.1306   -0.0016    5.3938 C   0  0  0  0  0  0  0  0  0  0  0  0
    0.5145   -0.0006    4.1817 C   0  0  0  0  0  0  0  0  0  0  0  0
    1.5006    0.0000    2.6992 S   0  0  0  0  0  0  0  0  0  0  0  0
    0.0000   -0.0000    1.7473 C   0  0  0  0  0  0  0  0  0  0  0  0
    0.0000    0.0000    0.0000 S   0  0  0  0  0  0  0  0  0  0  0  0
   -1.1129   -0.0004    2.3885 N   0  0  0  0  0  0  0  0  0  0  0  0
   -0.9501   -0.0006    3.7811 C   0  0  0  0  0  0  0  0  0  0  0  0
   -1.8828   -0.0007    4.5537 O   0  0  0  0  0  0  0  0  0  0  0  0
    1.6978   -0.0048    7.7644 C   0  0  0  0  0  0  0  0  0  0  0  0
    1.4000   -0.0056    9.1217 C   0  0  0  0  0  0  0  0  0  0  0  0
   -2.0019    0.0122    8.9060 H   0  0  0  0  0  0  0  0  0  0  0  0
   -1.4619    0.0079    6.4836 H   0  0  0  0  0  0  0  0  0  0  0  0
    2.2248   -0.0022    5.3312 H   0  0  0  0  0  0  0  0  0  0  0  0
    2.2489    0.0066   -0.5137 Au  0  0  0  0  0  0  0  0  0  0  0  0
    2.7436   -0.0031    7.4478 H   0  0  0  0  0  0  0  0  0  0  0  0
    2.2009   -0.0004    9.8623 H   0  0  0  0  0  0  0  0  0  0  0  0
  2  4  1  0  0  0  0
  2  3  1  0  0  0  0
  2  1  1  0  0  0  0
  5  2  1  0  0  0  0
  6 19  1  0  0  0  0
  6  5  2  0  0  0  0
  7  6  1  0  0  0  0
  8  7  2  0  0  0  0
  8 17  1  0  0  0  0
  9  8  1  0  0  0  0
 10  9  2  0  0  0  0
 11 10  1  0  0  0  0
 12 14  2  0  0  0  0
 12 11  1  0  0  0  0
 13 12  1  0  0  0  0
 14 15  2  0  0  0  0
 15 10  1  0  0  0  0
 15 16  2  0  0  0  0
 17 18  2  0  0  0  0
 18  5  1  0  0  0  0
 18 24  1  0  0  0  0
 20  7  1  0  0  0  0
 21  9  1  0  0  0  0
 22 13  1  0  0  0  0
 23 17  1  0  0  0  0
M  END
