000-699-979.xyz
 OpenBabel07262113333D
SC1=NC(=O)/C(=C\C2=C(Oc3c(C2c2ccc(cc2)C)cccc3)c2cccs2)/S1
 47 51  0  0  1  0  0  0  0  0999 V2000
    6.2015    1.2578    9.6208 C   0  0  0  0  0  0  0  0  0  0  0  0
    4.8819    0.7091    9.1411 C   0  0  0  0  0  0  0  0  0  0  0  0
    3.6966    1.4476    9.3099 C   0  0  0  0  0  0  0  0  0  0  0  0
    2.4713    0.9547    8.8715 C   0  0  0  0  0  0  0  0  0  0  0  0
    2.3848   -0.3010    8.2501 C   0  0  0  0  0  0  0  0  0  0  0  0
    3.5588   -1.0388    8.0784 C   0  0  0  0  0  0  0  0  0  0  0  0
    4.7905   -0.5404    8.5177 C   0  0  0  0  0  0  0  0  0  0  0  0
    1.0395   -0.8349    7.7682 C   0  0  2  0  0  0  0  0  0  0  0  0
    0.4361    0.0870    6.7120 C   0  0  0  0  0  0  0  0  0  0  0  0
    1.0746    0.0072    5.4123 C   0  0  0  0  0  0  0  0  0  0  0  0
    0.5228    0.0350    4.1722 C   0  0  0  0  0  0  0  0  0  0  0  0
    1.5082   -0.0000    2.7008 S   0  0  0  0  0  0  0  0  0  0  0  0
   -0.0000   -0.0000    1.7509 C   0  0  0  0  0  0  0  0  0  0  0  0
    0.0000    0.0000    0.0000 S   0  0  0  0  0  0  0  0  0  0  0  0
   -1.1110    0.0061    2.3909 N   0  0  0  0  0  0  0  0  0  0  0  0
   -0.9404    0.0294    3.7903 C   0  0  0  0  0  0  0  0  0  0  0  0
   -1.8562    0.0188    4.5795 O   0  0  0  0  0  0  0  0  0  0  0  0
   -0.5397    0.9761    7.0543 C   0  0  0  0  0  0  0  0  0  0  0  0
   -1.1790    0.9205    8.2615 O   0  0  0  0  0  0  0  0  0  0  0  0
   -0.9852   -0.1462    9.1003 C   0  0  0  0  0  0  0  0  0  0  0  0
   -1.8795   -0.2806   10.1666 C   0  0  0  0  0  0  0  0  0  0  0  0
   -1.7217   -1.3384   11.0593 C   0  0  0  0  0  0  0  0  0  0  0  0
   -0.6794   -2.2570   10.8823 C   0  0  0  0  0  0  0  0  0  0  0  0
    0.2033   -2.1038    9.8135 C   0  0  0  0  0  0  0  0  0  0  0  0
    0.0665   -1.0445    8.9080 C   0  0  0  0  0  0  0  0  0  0  0  0
   -1.0189    2.1211    6.2930 C   0  0  0  0  0  0  0  0  0  0  0  0
   -2.2945    2.6474    6.3397 C   0  0  0  0  0  0  0  0  0  0  0  0
   -2.4563    3.7960    5.5171 C   0  0  0  0  0  0  0  0  0  0  0  0
   -1.2966    4.1426    4.8678 C   0  0  0  0  0  0  0  0  0  0  0  0
    0.0033    3.0690    5.2435 S   0  0  0  0  0  0  0  0  0  0  0  0
    6.4322    2.2222    9.1385 H   0  0  0  0  0  0  0  0  0  0  0  0
    7.0292    0.5664    9.4060 H   0  0  0  0  0  0  0  0  0  0  0  0
    6.1863    1.4389   10.7085 H   0  0  0  0  0  0  0  0  0  0  0  0
    3.7399    2.4276    9.7937 H   0  0  0  0  0  0  0  0  0  0  0  0
    1.5666    1.5515    9.0110 H   0  0  0  0  0  0  0  0  0  0  0  0
    3.5124   -2.0191    7.5953 H   0  0  0  0  0  0  0  0  0  0  0  0
    5.6957   -1.1361    8.3714 H   0  0  0  0  0  0  0  0  0  0  0  0
    1.2276   -1.8165    7.3051 H   0  0  0  0  0  0  0  0  0  0  0  0
    2.1585   -0.1615    5.4625 H   0  0  0  0  0  0  0  0  0  0  0  0
    2.2506    0.0226   -0.5063 Au  0  0  0  0  0  0  0  0  0  0  0  0
   -2.6847    0.4483   10.2722 H   0  0  0  0  0  0  0  0  0  0  0  0
   -2.4173   -1.4498   11.8941 H   0  0  0  0  0  0  0  0  0  0  0  0
   -0.5557   -3.0888   11.5788 H   0  0  0  0  0  0  0  0  0  0  0  0
    1.0270   -2.8092    9.6759 H   0  0  0  0  0  0  0  0  0  0  0  0
   -3.0845    2.1958    6.9377 H   0  0  0  0  0  0  0  0  0  0  0  0
   -3.3944    4.3405    5.4051 H   0  0  0  0  0  0  0  0  0  0  0  0
   -1.1331    4.9704    4.1793 H   0  0  0  0  0  0  0  0  0  0  0  0
  1 33  1  0  0  0  0
  2  3  1  0  0  0  0
  2  1  1  0  0  0  0
  3 34  1  0  0  0  0
  4 35  1  0  0  0  0
  4  3  2  0  0  0  0
  5  4  1  0  0  0  0
  6  5  2  0  0  0  0
  6  7  1  0  0  0  0
  7  2  2  0  0  0  0
  8 38  1  6  0  0  0
  8  5  1  0  0  0  0
  8 25  1  0  0  0  0
  9 18  2  0  0  0  0
  9  8  1  0  0  0  0
 10 39  1  0  0  0  0
 10  9  1  0  0  0  0
 11 10  2  0  0  0  0
 12 11  1  0  0  0  0
 13 15  2  0  0  0  0
 13 12  1  0  0  0  0
 14 13  1  0  0  0  0
 15 16  2  0  0  0  0
 16 11  1  0  0  0  0
 16 17  2  0  0  0  0
 18 19  1  0  0  0  0
 19 20  1  0  0  0  0
 20 21  1  0  0  0  0
 21 41  1  0  0  0  0
 21 22  2  0  0  0  0
 22 42  1  0  0  0  0
 23 22  1  0  0  0  0
 23 43  1  0  0  0  0
 24 23  2  0  0  0  0
 25 20  2  0  0  0  0
 25 24  1  0  0  0  0
 26 27  2  0  0  0  0
 26 18  1  0  0  0  0
 27 45  1  0  0  0  0
 28 27  1  0  0  0  0
 29 30  1  0  0  0  0
 29 28  2  0  0  0  0
 30 26  1  0  0  0  0
 31  1  1  0  0  0  0
 32  1  1  0  0  0  0
 36  6  1  0  0  0  0
 37  7  1  0  0  0  0
 40 14  1  0  0  0  0
 44 24  1  0  0  0  0
 46 28  1  0  0  0  0
 47 29  1  0  0  0  0
M  END
