000-888-917.xyz
 OpenBabel07262113383D
CSc1ccc(cc1)/C=C\1/SC(=NC1=O)S
 25 26  0  0  0  0  0  0  0  0999 V2000
   -0.9990   -0.0013   11.5974 C   0  0  0  0  0  0  0  0  0  0  0  0
    0.7835   -0.0051   11.2609 S   0  0  0  0  0  0  0  0  0  0  0  0
    0.8698   -0.0034    9.4991 C   0  0  0  0  0  0  0  0  0  0  0  0
   -0.2437   -0.0002    8.6414 C   0  0  0  0  0  0  0  0  0  0  0  0
   -0.0830    0.0006    7.2591 C   0  0  0  0  0  0  0  0  0  0  0  0
    1.2026   -0.0017    6.6756 C   0  0  0  0  0  0  0  0  0  0  0  0
    1.5005   -0.0012    5.2535 C   0  0  0  0  0  0  0  0  0  0  0  0
    0.7542   -0.0001    4.1127 C   0  0  0  0  0  0  0  0  0  0  0  0
    1.5857   -0.0000    2.5353 S   0  0  0  0  0  0  0  0  0  0  0  0
    0.0000   -0.0000    1.7411 C   0  0  0  0  0  0  0  0  0  0  0  0
    0.0000    0.0000    0.0000 S   0  0  0  0  0  0  0  0  0  0  0  0
   -1.0419   -0.0000    2.5040 N   0  0  0  0  0  0  0  0  0  0  0  0
   -0.7332    0.0003    3.8722 C   0  0  0  0  0  0  0  0  0  0  0  0
   -1.5901    0.0009    4.7342 O   0  0  0  0  0  0  0  0  0  0  0  0
    2.3153   -0.0047    7.5545 C   0  0  0  0  0  0  0  0  0  0  0  0
    2.1601   -0.0056    8.9304 C   0  0  0  0  0  0  0  0  0  0  0  0
   -1.4834    0.9014   11.1979 H   0  0  0  0  0  0  0  0  0  0  0  0
   -1.4876   -0.9009   11.1961 H   0  0  0  0  0  0  0  0  0  0  0  0
   -1.0925   -0.0022   12.6921 H   0  0  0  0  0  0  0  0  0  0  0  0
   -1.2561    0.0016    9.0444 H   0  0  0  0  0  0  0  0  0  0  0  0
   -0.9554    0.0029    6.6086 H   0  0  0  0  0  0  0  0  0  0  0  0
    2.5815   -0.0021    5.0698 H   0  0  0  0  0  0  0  0  0  0  0  0
   -2.3025   -0.0033   -0.2911 Au  0  0  0  0  0  0  0  0  0  0  0  0
    3.3249   -0.0063    7.1352 H   0  0  0  0  0  0  0  0  0  0  0  0
    3.0390   -0.0080    9.5795 H   0  0  0  0  0  0  0  0  0  0  0  0
  1 19  1  0  0  0  0
  2  1  1  0  0  0  0
  3  2  1  0  0  0  0
  4 20  1  0  0  0  0
  4  3  2  0  0  0  0
  5  4  1  0  0  0  0
  6  5  2  0  0  0  0
  6 15  1  0  0  0  0
  7  6  1  0  0  0  0
  8  7  2  0  0  0  0
  9  8  1  0  0  0  0
 10 12  2  0  0  0  0
 10  9  1  0  0  0  0
 11 10  1  0  0  0  0
 12 13  2  0  0  0  0
 13  8  1  0  0  0  0
 13 14  2  0  0  0  0
 15 16  2  0  0  0  0
 16  3  1  0  0  0  0
 16 25  1  0  0  0  0
 17  1  1  0  0  0  0
 18  1  1  0  0  0  0
 21  5  1  0  0  0  0
 22  7  1  0  0  0  0
 23 11  1  0  0  0  0
 24 15  1  0  0  0  0
M  END
