000-842-070.xyz
 OpenBabel07262113383D
Brc1ccc(cc1)N1C(=NC(=O)/C(=C/c2ccc(o2)N2CCOCC2)/C1=O)S
 44 47  0  0  0  0  0  0  0  0999 V2000
    0.0000    0.0000    0.0000 S   0  0  0  0  0  0  0  0  0  0  0  0
   -0.0000    0.0000    1.7755 C   0  0  0  0  0  0  0  0  0  0  0  0
    1.1036    0.0000    2.4453 N   0  0  0  0  0  0  0  0  0  0  0  0
    1.0996    0.0002    3.8421 C   0  0  0  0  0  0  0  0  0  0  0  0
    2.1511   -0.0002    4.4608 O   0  0  0  0  0  0  0  0  0  0  0  0
   -0.2268    0.0007    4.5252 C   0  0  0  0  0  0  0  0  0  0  0  0
   -0.1920    0.0031    5.9100 C   0  0  0  0  0  0  0  0  0  0  0  0
   -1.1676    0.0041    6.9137 C   0  0  0  0  0  0  0  0  0  0  0  0
   -2.5604   -0.0011    7.0320 C   0  0  0  0  0  0  0  0  0  0  0  0
   -2.8869   -0.0003    8.3968 C   0  0  0  0  0  0  0  0  0  0  0  0
   -1.6638    0.0074    9.0825 C   0  0  0  0  0  0  0  0  0  0  0  0
   -0.6432    0.0107    8.2243 O   0  0  0  0  0  0  0  0  0  0  0  0
   -1.3857    0.0153   10.4008 N   0  0  0  0  0  0  0  0  0  0  0  0
   -0.0228   -0.0892   10.9161 C   0  0  0  0  0  0  0  0  0  0  0  0
   -0.0084   -1.0271   12.1171 C   0  0  0  0  0  0  0  0  0  0  0  0
   -0.9160   -0.6396   13.1387 O   0  0  0  0  0  0  0  0  0  0  0  0
   -1.9099    0.2860   12.7580 C   0  0  0  0  0  0  0  0  0  0  0  0
   -2.4755    0.0039   11.3716 C   0  0  0  0  0  0  0  0  0  0  0  0
   -1.4531   -0.0012    3.7465 C   0  0  0  0  0  0  0  0  0  0  0  0
   -2.5961   -0.0036    4.1789 O   0  0  0  0  0  0  0  0  0  0  0  0
   -1.2659   -0.0002    2.3359 N   0  0  0  0  0  0  0  0  0  0  0  0
   -2.4422   -0.0010    1.5117 C   0  0  0  0  0  0  0  0  0  0  0  0
   -3.0142   -1.2132    1.1176 C   0  0  0  0  0  0  0  0  0  0  0  0
   -4.1530   -1.2198    0.3133 C   0  0  0  0  0  0  0  0  0  0  0  0
   -4.7130   -0.0026   -0.0845 C   0  0  0  0  0  0  0  0  0  0  0  0
   -6.2665   -0.0036   -1.1854 Br  0  0  0  0  0  0  0  0  0  0  0  0
   -4.1539    1.2154    0.3123 C   0  0  0  0  0  0  0  0  0  0  0  0
   -3.0151    1.2103    1.1167 C   0  0  0  0  0  0  0  0  0  0  0  0
    2.3095   -0.0016   -0.2453 Au  0  0  0  0  0  0  0  0  0  0  0  0
    0.8335    0.0051    6.2963 H   0  0  0  0  0  0  0  0  0  0  0  0
   -3.2264   -0.0094    6.1759 H   0  0  0  0  0  0  0  0  0  0  0  0
   -3.8775   -0.0163    8.8407 H   0  0  0  0  0  0  0  0  0  0  0  0
    0.3647    0.9067   11.1968 H   0  0  0  0  0  0  0  0  0  0  0  0
    0.6309   -0.4812   10.1266 H   0  0  0  0  0  0  0  0  0  0  0  0
   -0.2544   -2.0508   11.7761 H   0  0  0  0  0  0  0  0  0  0  0  0
    1.0048   -1.0544   12.5512 H   0  0  0  0  0  0  0  0  0  0  0  0
   -1.5210    1.3234   12.7888 H   0  0  0  0  0  0  0  0  0  0  0  0
   -2.7161    0.2174   13.5032 H   0  0  0  0  0  0  0  0  0  0  0  0
   -2.9926   -0.9739   11.3634 H   0  0  0  0  0  0  0  0  0  0  0  0
   -3.2192    0.7766   11.1124 H   0  0  0  0  0  0  0  0  0  0  0  0
   -2.5584   -2.1508    1.4396 H   0  0  0  0  0  0  0  0  0  0  0  0
   -4.6033   -2.1612   -0.0031 H   0  0  0  0  0  0  0  0  0  0  0  0
   -4.6050    2.1562   -0.0047 H   0  0  0  0  0  0  0  0  0  0  0  0
   -2.5601    2.1485    1.4380 H   0  0  0  0  0  0  0  0  0  0  0  0
  1  2  1  0  0  0  0
  2 21  1  0  0  0  0
  2  3  2  0  0  0  0
  3  4  2  0  0  0  0
  4  5  2  0  0  0  0
  4  6  1  0  0  0  0
  6  7  2  0  0  0  0
  7 30  1  0  0  0  0
  7  8  1  0  0  0  0
  8  9  2  0  0  0  0
  8 12  1  0  0  0  0
  9 10  1  0  0  0  0
 10 32  1  0  0  0  0
 10 11  2  0  0  0  0
 11 13  1  0  0  0  0
 12 11  1  0  0  0  0
 13 14  1  0  0  0  0
 13 18  1  0  0  0  0
 14 33  1  0  0  0  0
 14 15  1  0  0  0  0
 15 36  1  0  0  0  0
 15 16  1  0  0  0  0
 17 37  1  0  0  0  0
 17 16  1  0  0  0  0
 17 38  1  0  0  0  0
 18 17  1  0  0  0  0
 19 20  2  0  0  0  0
 19  6  1  0  0  0  0
 21 19  1  0  0  0  0
 22 21  1  0  0  0  0
 23 41  1  0  0  0  0
 23 22  1  0  0  0  0
 24 23  2  0  0  0  0
 25 27  2  0  0  0  0
 25 24  1  0  0  0  0
 26 25  1  0  0  0  0
 27 28  1  0  0  0  0
 28 44  1  0  0  0  0
 28 22  2  0  0  0  0
 29  1  1  0  0  0  0
 31  9  1  0  0  0  0
 34 14  1  0  0  0  0
 35 15  1  0  0  0  0
 39 18  1  0  0  0  0
 40 18  1  0  0  0  0
 42 24  1  0  0  0  0
 43 27  1  0  0  0  0
M  END
