000-857-078.xyz
 OpenBabel07262113383D
Clc1ccc(cc1)N1C(=NC(=O)/C(=C\c2cc(n(c2C)C)C)/C1=O)S
 41 43  0  0  0  0  0  0  0  0999 V2000
    3.3719    0.0090    9.3475 C   0  0  0  0  0  0  0  0  0  0  0  0
    2.0735    0.0089    8.6124 C   0  0  0  0  0  0  0  0  0  0  0  0
    1.8308    0.0060    7.2654 C   0  0  0  0  0  0  0  0  0  0  0  0
    0.4013    0.0073    7.0674 C   0  0  0  0  0  0  0  0  0  0  0  0
   -0.4146    0.0057    5.9029 C   0  0  0  0  0  0  0  0  0  0  0  0
   -0.1991    0.0030    4.5388 C   0  0  0  0  0  0  0  0  0  0  0  0
    1.1116    0.0005    3.8456 C   0  0  0  0  0  0  0  0  0  0  0  0
    2.1851   -0.0010    4.4266 O   0  0  0  0  0  0  0  0  0  0  0  0
    1.1013   -0.0000    2.4462 N   0  0  0  0  0  0  0  0  0  0  0  0
    0.0000    0.0000    1.7749 C   0  0  0  0  0  0  0  0  0  0  0  0
    0.0000    0.0000    0.0000 S   0  0  0  0  0  0  0  0  0  0  0  0
   -1.2653    0.0003    2.3352 N   0  0  0  0  0  0  0  0  0  0  0  0
   -1.4443    0.0027    3.7416 C   0  0  0  0  0  0  0  0  0  0  0  0
   -2.5771    0.0041    4.1887 O   0  0  0  0  0  0  0  0  0  0  0  0
   -2.4430   -0.0007    1.5124 C   0  0  0  0  0  0  0  0  0  0  0  0
   -3.0189    1.2106    1.1213 C   0  0  0  0  0  0  0  0  0  0  0  0
   -4.1579    1.2149    0.3183 C   0  0  0  0  0  0  0  0  0  0  0  0
   -4.7154   -0.0029   -0.0821 C   0  0  0  0  0  0  0  0  0  0  0  0
   -6.1404   -0.0043   -1.0903 Cl  0  0  0  0  0  0  0  0  0  0  0  0
   -4.1516   -1.2196    0.3127 C   0  0  0  0  0  0  0  0  0  0  0  0
   -3.0128   -1.2132    1.1159 C   0  0  0  0  0  0  0  0  0  0  0  0
   -0.1786    0.0110    8.3622 C   0  0  0  0  0  0  0  0  0  0  0  0
   -1.6044    0.0138    8.7961 C   0  0  0  0  0  0  0  0  0  0  0  0
    0.8342    0.0119    9.2715 N   0  0  0  0  0  0  0  0  0  0  0  0
    0.6399    0.0152   10.7070 C   0  0  0  0  0  0  0  0  0  0  0  0
    4.1939    0.0060    8.6193 H   0  0  0  0  0  0  0  0  0  0  0  0
    3.4971    0.9007    9.9863 H   0  0  0  0  0  0  0  0  0  0  0  0
    3.4947   -0.8798    9.9908 H   0  0  0  0  0  0  0  0  0  0  0  0
    2.5605    0.0032    6.4648 H   0  0  0  0  0  0  0  0  0  0  0  0
   -1.4870    0.0073    6.1219 H   0  0  0  0  0  0  0  0  0  0  0  0
    2.3099   -0.0004   -0.2445 Au  0  0  0  0  0  0  0  0  0  0  0  0
   -2.5660    2.1488    1.4454 H   0  0  0  0  0  0  0  0  0  0  0  0
   -4.6161    2.1523    0.0015 H   0  0  0  0  0  0  0  0  0  0  0  0
   -4.6050   -2.1579   -0.0084 H   0  0  0  0  0  0  0  0  0  0  0  0
   -2.5550   -2.1505    1.4356 H   0  0  0  0  0  0  0  0  0  0  0  0
   -1.8444   -0.8716    9.4100 H   0  0  0  0  0  0  0  0  0  0  0  0
   -2.2813    0.0119    7.9335 H   0  0  0  0  0  0  0  0  0  0  0  0
   -1.8425    0.9033    9.4047 H   0  0  0  0  0  0  0  0  0  0  0  0
    0.0823   -0.8769   11.0335 H   0  0  0  0  0  0  0  0  0  0  0  0
    0.0817    0.9085   11.0292 H   0  0  0  0  0  0  0  0  0  0  0  0
    1.6129    0.0168   11.2103 H   0  0  0  0  0  0  0  0  0  0  0  0
  1 27  1  0  0  0  0
  1 28  1  0  0  0  0
  2 24  1  0  0  0  0
  2  1  1  0  0  0  0
  3  2  2  0  0  0  0
  4  3  1  0  0  0  0
  4 22  2  0  0  0  0
  5 30  1  0  0  0  0
  5  4  1  0  0  0  0
  6  5  2  0  0  0  0
  7  8  2  0  0  0  0
  7  6  1  0  0  0  0
  9  7  2  0  0  0  0
 10 12  1  0  0  0  0
 10  9  2  0  0  0  0
 11 10  1  0  0  0  0
 12 13  1  0  0  0  0
 13 14  2  0  0  0  0
 13  6  1  0  0  0  0
 15 12  1  0  0  0  0
 16 32  1  0  0  0  0
 16 15  1  0  0  0  0
 17 16  2  0  0  0  0
 18 20  2  0  0  0  0
 18 17  1  0  0  0  0
 19 18  1  0  0  0  0
 20 21  1  0  0  0  0
 21 35  1  0  0  0  0
 21 15  2  0  0  0  0
 22 23  1  0  0  0  0
 22 24  1  0  0  0  0
 23 38  1  0  0  0  0
 23 36  1  0  0  0  0
 24 25  1  0  0  0  0
 25 40  1  0  0  0  0
 25 39  1  0  0  0  0
 25 41  1  0  0  0  0
 26  1  1  0  0  0  0
 29  3  1  0  0  0  0
 31 11  1  0  0  0  0
 33 17  1  0  0  0  0
 34 20  1  0  0  0  0
 37 23  1  0  0  0  0
M  END
