000-722-104.xyz
 OpenBabel07262113333D
Cc1cccc2c1nc(O)c(c2)/C=C/1\SC(=NC1=O)S
 30 32  0  0  1  0  0  0  0  0999 V2000
    7.5318    0.2315    7.2184 C   0  0  0  0  0  0  0  0  0  0  0  0
    6.2664    0.3658    8.0169 C   0  0  0  0  0  0  0  0  0  0  0  0
    6.2723    0.5719    9.3878 C   0  0  0  0  0  0  0  0  0  0  0  0
    5.0761    0.6963   10.1353 C   0  0  0  0  0  0  0  0  0  0  0  0
    3.8525    0.6151    9.5069 C   0  0  0  0  0  0  0  0  0  0  0  0
    3.7936    0.4061    8.1034 C   0  0  1  0  0  0  0  0  0  0  0  0
    2.5776    0.3176    7.3858 C   0  0  0  0  0  0  0  0  0  0  0  0
    2.5452    0.1225    6.0099 C   0  0  0  0  0  0  0  0  0  0  0  0
    1.2510    0.0641    5.3541 C   0  0  0  0  0  0  0  0  0  0  0  0
    0.7981    0.0144    4.0794 C   0  0  0  0  0  0  0  0  0  0  0  0
    1.6115    0.0000    2.5140 S   0  0  0  0  0  0  0  0  0  0  0  0
    0.0000    0.0000    1.7382 C   0  0  0  0  0  0  0  0  0  0  0  0
    0.0000    0.0000    0.0000 S   0  0  0  0  0  0  0  0  0  0  0  0
   -1.0437   -0.0043    2.4983 N   0  0  0  0  0  0  0  0  0  0  0  0
   -0.7109    0.0015    3.8589 C   0  0  0  0  0  0  0  0  0  0  0  0
   -1.5173    0.0019    4.7609 O   0  0  0  0  0  0  0  0  0  0  0  0
    3.8356   -0.0079    5.3829 C   0  0  0  0  0  0  0  0  0  0  0  0
    3.8661   -0.2400    4.0604 O   0  0  0  0  0  0  0  0  0  0  0  0
    4.9763    0.0695    6.0085 N   0  0  0  0  0  0  0  0  0  0  0  0
    5.0056    0.2790    7.3540 C   0  0  0  0  0  0  0  0  0  0  0  0
    8.4194    0.3173    7.8611 H   0  0  0  0  0  0  0  0  0  0  0  0
    7.5653   -0.7373    6.6953 H   0  0  0  0  0  0  0  0  0  0  0  0
    7.5862    1.0036    6.4347 H   0  0  0  0  0  0  0  0  0  0  0  0
    7.2317    0.6399    9.9075 H   0  0  0  0  0  0  0  0  0  0  0  0
    5.1315    0.8575   11.2141 H   0  0  0  0  0  0  0  0  0  0  0  0
    2.9214    0.7103   10.0709 H   0  0  0  0  0  0  0  0  0  0  0  0
    1.6334    0.4131    7.9284 H   0  0  0  0  0  0  0  0  0  0  0  0
    0.4079    0.0866    6.0562 H   0  0  0  0  0  0  0  0  0  0  0  0
   -2.3016   -0.0133   -0.2992 Au  0  0  0  0  0  0  0  0  0  0  0  0
    4.8031   -0.2984    3.8087 H   0  0  0  0  0  0  0  0  0  0  0  0
  1 21  1  0  0  0  0
  1  2  1  0  0  0  0
  2  3  2  0  0  0  0
  3 24  1  0  0  0  0
  3  4  1  0  0  0  0
  4 25  1  0  0  0  0
  5 26  1  0  0  0  0
  5  4  2  0  0  0  0
  6 20  1  6  0  0  0
  6  5  1  0  0  0  0
  7 27  1  0  0  0  0
  7  6  1  0  0  0  0
  8  7  2  0  0  0  0
  9  8  1  0  0  0  0
  9 28  1  0  0  0  0
 10  9  2  0  0  0  0
 11 10  1  0  0  0  0
 12 14  2  0  0  0  0
 12 11  1  0  0  0  0
 13 12  1  0  0  0  0
 14 15  2  0  0  0  0
 15 10  1  0  0  0  0
 15 16  2  0  0  0  0
 17 19  2  0  0  0  0
 17  8  1  0  0  0  0
 18 17  1  0  0  0  0
 19 20  2  0  0  0  0
 20  2  1  0  0  0  0
 22  1  1  0  0  0  0
 23  1  1  0  0  0  0
 29 13  1  0  0  0  0
 30 18  1  0  0  0  0
M  RAD  1   6   2
M  END
