000-778-545.xyz
 OpenBabel07262113363D
Fc1ccc(cc1)n1c(C)cc(c1C)/C=C\1/C(=O)N=C(N(C1=O)C)S
 41 43  0  0  0  0  0  0  0  0999 V2000
    2.4660   -0.0002    1.5470 C   0  0  0  0  0  0  0  0  0  0  0  0
    1.2496    0.0000    2.3571 N   0  0  0  0  0  0  0  0  0  0  0  0
   -0.0000    0.0000    1.7753 C   0  0  0  0  0  0  0  0  0  0  0  0
    0.0000    0.0000    0.0000 S   0  0  0  0  0  0  0  0  0  0  0  0
   -1.1268   -0.0000    2.4157 N   0  0  0  0  0  0  0  0  0  0  0  0
   -1.1633    0.0003    3.8056 C   0  0  0  0  0  0  0  0  0  0  0  0
   -2.2343    0.0003    4.3918 O   0  0  0  0  0  0  0  0  0  0  0  0
    0.1470    0.0007    4.5329 C   0  0  0  0  0  0  0  0  0  0  0  0
    0.0493    0.0022    5.9079 C   0  0  0  0  0  0  0  0  0  0  0  0
    0.9475    0.0036    7.0130 C   0  0  0  0  0  0  0  0  0  0  0  0
    2.3898    0.0036    7.1124 C   0  0  0  0  0  0  0  0  0  0  0  0
    2.7269    0.0063    8.4380 C   0  0  0  0  0  0  0  0  0  0  0  0
    4.0561    0.0025    9.1132 C   0  0  0  0  0  0  0  0  0  0  0  0
    1.5324    0.0075    9.1787 N   0  0  0  0  0  0  0  0  0  0  0  0
    0.4539    0.0060    8.3404 C   0  0  0  0  0  0  0  0  0  0  0  0
   -0.9378    0.0114    8.8745 C   0  0  0  0  0  0  0  0  0  0  0  0
    1.4640    0.0099   10.6033 C   0  0  0  0  0  0  0  0  0  0  0  0
    1.5001    1.2216   11.3024 C   0  0  0  0  0  0  0  0  0  0  0  0
    1.4395    1.2293   12.6962 C   0  0  0  0  0  0  0  0  0  0  0  0
    1.3421    0.0144   13.3723 C   0  0  0  0  0  0  0  0  0  0  0  0
    1.2830    0.0166   14.7082 F   0  0  0  0  0  0  0  0  0  0  0  0
    1.3051   -1.2027   12.6943 C   0  0  0  0  0  0  0  0  0  0  0  0
    1.3684   -1.1996   11.3006 C   0  0  0  0  0  0  0  0  0  0  0  0
    1.3969   -0.0001    3.7729 C   0  0  0  0  0  0  0  0  0  0  0  0
    2.5232   -0.0008    4.2431 O   0  0  0  0  0  0  0  0  0  0  0  0
    3.3155   -0.0005    2.2377 H   0  0  0  0  0  0  0  0  0  0  0  0
    2.5044   -0.8955    0.9090 H   0  0  0  0  0  0  0  0  0  0  0  0
    2.5048    0.8954    0.9093 H   0  0  0  0  0  0  0  0  0  0  0  0
   -2.3177   -0.0006   -0.2109 Au  0  0  0  0  0  0  0  0  0  0  0  0
   -1.0068    0.0024    6.1974 H   0  0  0  0  0  0  0  0  0  0  0  0
    3.0675    0.0006    6.2680 H   0  0  0  0  0  0  0  0  0  0  0  0
    4.1866   -0.8792    9.7630 H   0  0  0  0  0  0  0  0  0  0  0  0
    4.2015    0.8926    9.7482 H   0  0  0  0  0  0  0  0  0  0  0  0
    4.8512   -0.0101    8.3558 H   0  0  0  0  0  0  0  0  0  0  0  0
   -1.1138    0.8856    9.5227 H   0  0  0  0  0  0  0  0  0  0  0  0
   -1.1379   -0.8840    9.4858 H   0  0  0  0  0  0  0  0  0  0  0  0
   -1.6731    0.0376    8.0617 H   0  0  0  0  0  0  0  0  0  0  0  0
    1.5754    2.1572   10.7453 H   0  0  0  0  0  0  0  0  0  0  0  0
    1.4654    2.1596   13.2657 H   0  0  0  0  0  0  0  0  0  0  0  0
    1.2296   -2.1312   13.2624 H   0  0  0  0  0  0  0  0  0  0  0  0
    1.3454   -2.1372   10.7423 H   0  0  0  0  0  0  0  0  0  0  0  0
  1 26  1  0  0  0  0
  1  2  1  0  0  0  0
  2 24  1  0  0  0  0
  3  2  1  0  0  0  0
  3  5  2  0  0  0  0
  4  3  1  0  0  0  0
  5  6  2  0  0  0  0
  6  7  2  0  0  0  0
  6  8  1  0  0  0  0
  8  9  2  0  0  0  0
  9 30  1  0  0  0  0
  9 10  1  0  0  0  0
 10 11  1  0  0  0  0
 10 15  2  0  0  0  0
 11 12  2  0  0  0  0
 12 13  1  0  0  0  0
 12 14  1  0  0  0  0
 13 33  1  0  0  0  0
 13 32  1  0  0  0  0
 14 17  1  0  0  0  0
 15 16  1  0  0  0  0
 15 14  1  0  0  0  0
 16 36  1  0  0  0  0
 16 35  1  0  0  0  0
 17 23  2  0  0  0  0
 17 18  1  0  0  0  0
 18 19  2  0  0  0  0
 19 39  1  0  0  0  0
 19 20  1  0  0  0  0
 20 21  1  0  0  0  0
 22 40  1  0  0  0  0
 22 20  2  0  0  0  0
 23 22  1  0  0  0  0
 24 25  2  0  0  0  0
 24  8  1  0  0  0  0
 27  1  1  0  0  0  0
 28  1  1  0  0  0  0
 29  4  1  0  0  0  0
 31 11  1  0  0  0  0
 34 13  1  0  0  0  0
 37 16  1  0  0  0  0
 38 18  1  0  0  0  0
 41 23  1  0  0  0  0
M  END
