000-739-819.xyz
 OpenBabel07262113343D
O=C1N=C(S)N(C(=O)/C/1=C\C=C\c1ccco1)c1ccccc1
 35 37  0  0  0  0  0  0  0  0999 V2000
    0.0000    0.0000    0.0000 S   0  0  0  0  0  0  0  0  0  0  0  0
   -0.0000    0.0000    1.7721 C   0  0  0  0  0  0  0  0  0  0  0  0
   -1.1069   -0.0002    2.4397 N   0  0  0  0  0  0  0  0  0  0  0  0
   -1.1073   -0.0008    3.8328 C   0  0  0  0  0  0  0  0  0  0  0  0
   -2.1547    0.0001    4.4549 O   0  0  0  0  0  0  0  0  0  0  0  0
    0.2207   -0.0031    4.5239 C   0  0  0  0  0  0  0  0  0  0  0  0
    0.2165   -0.0057    5.8967 C   0  0  0  0  0  0  0  0  0  0  0  0
    1.3272   -0.0087    6.7918 C   0  0  0  0  0  0  0  0  0  0  0  0
    1.1325   -0.0119    8.1431 C   0  0  0  0  0  0  0  0  0  0  0  0
    2.1721   -0.0158    9.1238 C   0  0  0  0  0  0  0  0  0  0  0  0
    3.5553   -0.0180    9.0619 C   0  0  0  0  0  0  0  0  0  0  0  0
    4.0233   -0.0222   10.4050 C   0  0  0  0  0  0  0  0  0  0  0  0
    2.9013   -0.0224   11.1968 C   0  0  0  0  0  0  0  0  0  0  0  0
    1.7871   -0.0185   10.4393 O   0  0  0  0  0  0  0  0  0  0  0  0
    1.4620   -0.0023    3.7361 C   0  0  0  0  0  0  0  0  0  0  0  0
    2.5974   -0.0033    4.1762 O   0  0  0  0  0  0  0  0  0  0  0  0
    1.2691    0.0000    2.3310 N   0  0  0  0  0  0  0  0  0  0  0  0
    2.4442    0.0020    1.4989 C   0  0  0  0  0  0  0  0  0  0  0  0
    3.0061    1.2174    1.1002 C   0  0  0  0  0  0  0  0  0  0  0  0
    4.1410    1.2166    0.2886 C   0  0  0  0  0  0  0  0  0  0  0  0
    4.7120    0.0060   -0.1154 C   0  0  0  0  0  0  0  0  0  0  0  0
    4.1497   -1.2066    0.2948 C   0  0  0  0  0  0  0  0  0  0  0  0
    3.0148   -1.2114    1.1063 C   0  0  0  0  0  0  0  0  0  0  0  0
   -2.3086   -0.0015   -0.2550 Au  0  0  0  0  0  0  0  0  0  0  0  0
   -0.7868   -0.0057    6.3381 H   0  0  0  0  0  0  0  0  0  0  0  0
    2.3313   -0.0086    6.3668 H   0  0  0  0  0  0  0  0  0  0  0  0
    0.1125   -0.0117    8.5414 H   0  0  0  0  0  0  0  0  0  0  0  0
    4.1520   -0.0168    8.1528 H   0  0  0  0  0  0  0  0  0  0  0  0
    5.0560   -0.0249   10.7459 H   0  0  0  0  0  0  0  0  0  0  0  0
    2.7524   -0.0248   12.2735 H   0  0  0  0  0  0  0  0  0  0  0  0
    2.5452    2.1517    1.4246 H   0  0  0  0  0  0  0  0  0  0  0  0
    4.5812    2.1643   -0.0292 H   0  0  0  0  0  0  0  0  0  0  0  0
    5.6002    0.0076   -0.7515 H   0  0  0  0  0  0  0  0  0  0  0  0
    4.5968   -2.1527   -0.0181 H   0  0  0  0  0  0  0  0  0  0  0  0
    2.5607   -2.1474    1.4355 H   0  0  0  0  0  0  0  0  0  0  0  0
  1  2  1  0  0  0  0
  2 17  1  0  0  0  0
  2  3  2  0  0  0  0
  3  4  2  0  0  0  0
  4  5  2  0  0  0  0
  4  6  1  0  0  0  0
  6  7  2  0  0  0  0
  7 25  1  0  0  0  0
  7  8  1  0  0  0  0
  8  9  2  0  0  0  0
  9 27  1  0  0  0  0
  9 10  1  0  0  0  0
 10 14  1  0  0  0  0
 11 10  2  0  0  0  0
 11 12  1  0  0  0  0
 12 29  1  0  0  0  0
 12 13  2  0  0  0  0
 13 30  1  0  0  0  0
 14 13  1  0  0  0  0
 15 16  2  0  0  0  0
 15  6  1  0  0  0  0
 17 15  1  0  0  0  0
 18 17  1  0  0  0  0
 19 31  1  0  0  0  0
 19 18  2  0  0  0  0
 20 19  1  0  0  0  0
 21 20  2  0  0  0  0
 21 22  1  0  0  0  0
 22 23  2  0  0  0  0
 23 35  1  0  0  0  0
 23 18  1  0  0  0  0
 24  1  1  0  0  0  0
 26  8  1  0  0  0  0
 28 11  1  0  0  0  0
 32 20  1  0  0  0  0
 33 21  1  0  0  0  0
 34 22  1  0  0  0  0
M  END
