000-740-520.xyz
 OpenBabel07262113343D
O=C1N=C(S)N(C(=O)/C/1=C\c1ccc(o1)c1cccc(c1Cl)Cl)c1ccccc1
 41 44  0  0  0  0  0  0  0  0999 V2000
    0.0000    0.0000    0.0000 S   0  0  0  0  0  0  0  0  0  0  0  0
   -0.0000   -0.0000    1.7787 C   0  0  0  0  0  0  0  0  0  0  0  0
   -1.1859    0.0242    2.2707 N   0  0  0  0  0  0  0  0  0  0  0  0
   -1.4151    0.0471    3.6427 C   0  0  0  0  0  0  0  0  0  0  0  0
   -2.5257    0.2374    4.0994 O   0  0  0  0  0  0  0  0  0  0  0  0
   -0.2312   -0.2326    4.5206 C   0  0  0  0  0  0  0  0  0  0  0  0
   -0.5043   -0.4396    5.8503 C   0  0  0  0  0  0  0  0  0  0  0  0
    0.2868   -0.7154    6.9947 C   0  0  0  0  0  0  0  0  0  0  0  0
    1.6303   -0.8701    7.3231 C   0  0  0  0  0  0  0  0  0  0  0  0
    1.6912   -1.1345    8.7070 C   0  0  0  0  0  0  0  0  0  0  0  0
    0.3831   -1.1333    9.1793 C   0  0  0  0  0  0  0  0  0  0  0  0
   -0.4526   -0.8817    8.1477 O   0  0  0  0  0  0  0  0  0  0  0  0
   -0.2681   -1.3681   10.4674 C   0  0  0  0  0  0  0  0  0  0  0  0
   -1.6715   -1.5257   10.4730 C   0  0  0  0  0  0  0  0  0  0  0  0
   -2.3727   -1.7570   11.6496 C   0  0  0  0  0  0  0  0  0  0  0  0
   -1.6952   -1.8391   12.8655 C   0  0  0  0  0  0  0  0  0  0  0  0
   -0.3084   -1.6818   12.8921 C   0  0  0  0  0  0  0  0  0  0  0  0
    0.5081   -1.7788   14.4245 Cl  0  0  0  0  0  0  0  0  0  0  0  0
    0.4124   -1.4454   11.7073 C   0  0  0  0  0  0  0  0  0  0  0  0
    2.1340   -1.2291   11.8254 Cl  0  0  0  0  0  0  0  0  0  0  0  0
    1.1140   -0.2172    3.9452 C   0  0  0  0  0  0  0  0  0  0  0  0
    2.1548   -0.3413    4.5670 O   0  0  0  0  0  0  0  0  0  0  0  0
    1.1719    0.0000    2.5395 N   0  0  0  0  0  0  0  0  0  0  0  0
    2.4652    0.2746    1.9872 C   0  0  0  0  0  0  0  0  0  0  0  0
    3.4218   -0.7455    1.8923 C   0  0  0  0  0  0  0  0  0  0  0  0
    4.6572   -0.4777    1.2939 C   0  0  0  0  0  0  0  0  0  0  0  0
    4.9382    0.8048    0.8040 C   0  0  0  0  0  0  0  0  0  0  0  0
    3.9910    1.8231    0.9329 C   0  0  0  0  0  0  0  0  0  0  0  0
    2.7556    1.5613    1.5315 C   0  0  0  0  0  0  0  0  0  0  0  0
    1.9866   -0.9592   -0.7035 Au  0  0  0  0  0  0  0  0  0  0  0  0
   -1.5756   -0.3776    6.0724 H   0  0  0  0  0  0  0  0  0  0  0  0
    2.4460   -0.7896    6.6149 H   0  0  0  0  0  0  0  0  0  0  0  0
    2.5842   -1.3155    9.2917 H   0  0  0  0  0  0  0  0  0  0  0  0
   -2.2007   -1.4652    9.5234 H   0  0  0  0  0  0  0  0  0  0  0  0
   -3.4573   -1.8777   11.6227 H   0  0  0  0  0  0  0  0  0  0  0  0
   -2.2243   -2.0221   13.8012 H   0  0  0  0  0  0  0  0  0  0  0  0
    3.1916   -1.7347    2.2890 H   0  0  0  0  0  0  0  0  0  0  0  0
    5.4047   -1.2706    1.2186 H   0  0  0  0  0  0  0  0  0  0  0  0
    5.9022    1.0097    0.3334 H   0  0  0  0  0  0  0  0  0  0  0  0
    4.2105    2.8267    0.5627 H   0  0  0  0  0  0  0  0  0  0  0  0
    1.9998    2.3431    1.6198 H   0  0  0  0  0  0  0  0  0  0  0  0
  1  2  1  0  0  0  0
  2  3  2  0  0  0  0
  2 23  1  0  0  0  0
  3  4  2  0  0  0  0
  4  5  2  0  0  0  0
  4  6  1  0  0  0  0
  6  7  2  0  0  0  0
  7 31  1  0  0  0  0
  7  8  1  0  0  0  0
  8  9  2  0  0  0  0
  8 12  1  0  0  0  0
  9 10  1  0  0  0  0
 10 11  2  0  0  0  0
 10 33  1  0  0  0  0
 11 13  1  0  0  0  0
 12 11  1  0  0  0  0
 13 14  2  0  0  0  0
 13 19  1  0  0  0  0
 14 15  1  0  0  0  0
 15 16  2  0  0  0  0
 16 17  1  0  0  0  0
 16 36  1  0  0  0  0
 17 18  1  0  0  0  0
 19 20  1  0  0  0  0
 19 17  2  0  0  0  0
 21  6  1  0  0  0  0
 21 22  2  0  0  0  0
 23 21  1  0  0  0  0
 24 23  1  0  0  0  0
 25 24  1  0  0  0  0
 25 37  1  0  0  0  0
 26 25  2  0  0  0  0
 27 28  2  0  0  0  0
 27 26  1  0  0  0  0
 28 29  1  0  0  0  0
 29 41  1  0  0  0  0
 29 24  2  0  0  0  0
 30  1  1  0  0  0  0
 32  9  1  0  0  0  0
 34 14  1  0  0  0  0
 35 15  1  0  0  0  0
 38 26  1  0  0  0  0
 39 27  1  0  0  0  0
 40 28  1  0  0  0  0
M  END
