000-744-564.xyz
 OpenBabel07262113343D
Clc1cccc(c1)N1C(=NC(=O)/C(=C/c2ccc(s2)[N+](=O)[O-])/C1=O)S
 33 35  0  0  0  0  0  0  0  0999 V2000
    0.4508   -2.1592   11.1640 O   0  0  0  0  0  0  0  0  0  0  0  0
   -0.6695   -2.0573   10.6836 N   0  0  0  0  0  0  0  0  0  0  0  0
   -1.7229   -2.2625   11.2643 O   0  0  0  0  0  0  0  0  0  0  0  0
   -0.7470   -1.6562    9.2969 C   0  0  0  0  0  0  0  0  0  0  0  0
   -1.9050   -1.4823    8.5663 C   0  0  0  0  0  0  0  0  0  0  0  0
   -1.6292   -1.0864    7.2426 C   0  0  0  0  0  0  0  0  0  0  0  0
   -0.2609   -0.9659    6.9806 C   0  0  0  0  0  0  0  0  0  0  0  0
    0.5033   -0.6056    5.8194 C   0  0  0  0  0  0  0  0  0  0  0  0
    0.2112   -0.3057    4.5160 C   0  0  0  0  0  0  0  0  0  0  0  0
    1.4014    0.0117    3.6450 C   0  0  0  0  0  0  0  0  0  0  0  0
    2.5024    0.2104    4.1172 O   0  0  0  0  0  0  0  0  0  0  0  0
    1.1826   -0.0000    2.2748 N   0  0  0  0  0  0  0  0  0  0  0  0
    0.0000   -0.0000    1.7743 C   0  0  0  0  0  0  0  0  0  0  0  0
    0.0000    0.0000    0.0000 S   0  0  0  0  0  0  0  0  0  0  0  0
   -1.1753    0.0286    2.5346 N   0  0  0  0  0  0  0  0  0  0  0  0
   -1.1357   -0.2191    3.9325 C   0  0  0  0  0  0  0  0  0  0  0  0
   -2.1841   -0.3052    4.5447 O   0  0  0  0  0  0  0  0  0  0  0  0
   -2.4520    0.3697    1.9799 C   0  0  0  0  0  0  0  0  0  0  0  0
   -2.6803    1.6722    1.5363 C   0  0  0  0  0  0  0  0  0  0  0  0
   -3.9030    1.9899    0.9393 C   0  0  0  0  0  0  0  0  0  0  0  0
   -4.8966    1.0213    0.7928 C   0  0  0  0  0  0  0  0  0  0  0  0
   -4.6607   -0.2745    1.2678 C   0  0  0  0  0  0  0  0  0  0  0  0
   -5.8906   -1.4995    1.0859 Cl  0  0  0  0  0  0  0  0  0  0  0  0
   -3.4452   -0.6116    1.8692 C   0  0  0  0  0  0  0  0  0  0  0  0
    0.6915   -1.3467    8.4101 S   0  0  0  0  0  0  0  0  0  0  0  0
   -2.8939   -1.6380    8.9943 H   0  0  0  0  0  0  0  0  0  0  0  0
   -2.3732   -0.8785    6.4793 H   0  0  0  0  0  0  0  0  0  0  0  0
    1.5864   -0.5607    5.9921 H   0  0  0  0  0  0  0  0  0  0  0  0
   -1.9849   -0.9572   -0.7102 Au  0  0  0  0  0  0  0  0  0  0  0  0
   -1.8929    2.4202    1.6340 H   0  0  0  0  0  0  0  0  0  0  0  0
   -4.0827    3.0044    0.5781 H   0  0  0  0  0  0  0  0  0  0  0  0
   -5.8518    1.2589    0.3233 H   0  0  0  0  0  0  0  0  0  0  0  0
   -3.2729   -1.6176    2.2492 H   0  0  0  0  0  0  0  0  0  0  0  0
  2  1  2  0  0  0  0
  2  3  2  0  0  0  0
  4  2  1  0  0  0  0
  5 26  1  0  0  0  0
  5  4  2  0  0  0  0
  6  5  1  0  0  0  0
  7  6  2  0  0  0  0
  7 25  1  0  0  0  0
  8 28  1  0  0  0  0
  8  7  1  0  0  0  0
  9  8  2  0  0  0  0
 10 11  2  0  0  0  0
 10  9  1  0  0  0  0
 12 10  2  0  0  0  0
 13 12  2  0  0  0  0
 13 15  1  0  0  0  0
 14 13  1  0  0  0  0
 15 16  1  0  0  0  0
 16  9  1  0  0  0  0
 16 17  2  0  0  0  0
 18 15  1  0  0  0  0
 19 30  1  0  0  0  0
 19 18  2  0  0  0  0
 20 19  1  0  0  0  0
 21 20  2  0  0  0  0
 21 22  1  0  0  0  0
 22 24  2  0  0  0  0
 23 22  1  0  0  0  0
 24 18  1  0  0  0  0
 24 33  1  0  0  0  0
 25  4  1  0  0  0  0
 27  6  1  0  0  0  0
 29 14  1  0  0  0  0
 31 20  1  0  0  0  0
 32 21  1  0  0  0  0
M  END
