000-831-529.xyz
 OpenBabel07262113373D
Cc1cccc(c1)N1C(=NC(=O)/C(=C\c2cc(n(c2C)C)C)/C1=O)S
 44 46  0  0  0  0  0  0  0  0999 V2000
   -3.3880   -0.0461    9.3399 C   0  0  0  0  0  0  0  0  0  0  0  0
   -2.0879   -0.0425    8.6076 C   0  0  0  0  0  0  0  0  0  0  0  0
   -1.8424   -0.0297    7.2610 C   0  0  0  0  0  0  0  0  0  0  0  0
   -0.4127   -0.0318    7.0658 C   0  0  0  0  0  0  0  0  0  0  0  0
    0.4054   -0.0232    5.9018 C   0  0  0  0  0  0  0  0  0  0  0  0
    0.1922   -0.0121    4.5382 C   0  0  0  0  0  0  0  0  0  0  0  0
   -1.1174   -0.0043    3.8424 C   0  0  0  0  0  0  0  0  0  0  0  0
   -2.1920   -0.0008    4.4222 O   0  0  0  0  0  0  0  0  0  0  0  0
   -1.1041   -0.0017    2.4440 N   0  0  0  0  0  0  0  0  0  0  0  0
    0.0000    0.0000    1.7756 C   0  0  0  0  0  0  0  0  0  0  0  0
    0.0000    0.0000    0.0000 S   0  0  0  0  0  0  0  0  0  0  0  0
    1.2634    0.0000    2.3367 N   0  0  0  0  0  0  0  0  0  0  0  0
    1.4397   -0.0075    3.7421 C   0  0  0  0  0  0  0  0  0  0  0  0
    2.5705   -0.0094    4.1940 O   0  0  0  0  0  0  0  0  0  0  0  0
    2.4431    0.0056    1.5116 C   0  0  0  0  0  0  0  0  0  0  0  0
    3.0464   -1.2040    1.1576 C   0  0  0  0  0  0  0  0  0  0  0  0
    4.1821   -1.1802    0.3507 C   0  0  0  0  0  0  0  0  0  0  0  0
    4.7060    0.0381   -0.0922 C   0  0  0  0  0  0  0  0  0  0  0  0
    4.1104    1.2562    0.2639 C   0  0  0  0  0  0  0  0  0  0  0  0
    4.6599    2.5741   -0.2195 C   0  0  0  0  0  0  0  0  0  0  0  0
    2.9710    1.2217    1.0793 C   0  0  0  0  0  0  0  0  0  0  0  0
    0.1645   -0.0462    8.3611 C   0  0  0  0  0  0  0  0  0  0  0  0
    1.5896   -0.0547    8.7976 C   0  0  0  0  0  0  0  0  0  0  0  0
   -0.8502   -0.0525    9.2691 N   0  0  0  0  0  0  0  0  0  0  0  0
   -0.6583   -0.0671   10.7046 C   0  0  0  0  0  0  0  0  0  0  0  0
   -3.5161   -0.9425    9.9717 H   0  0  0  0  0  0  0  0  0  0  0  0
   -3.5110    0.8379    9.9898 H   0  0  0  0  0  0  0  0  0  0  0  0
   -4.2083   -0.0364    8.6099 H   0  0  0  0  0  0  0  0  0  0  0  0
   -2.5701   -0.0194    6.4586 H   0  0  0  0  0  0  0  0  0  0  0  0
    1.4775   -0.0270    6.1224 H   0  0  0  0  0  0  0  0  0  0  0  0
   -2.3101   -0.0128   -0.2423 Au  0  0  0  0  0  0  0  0  0  0  0  0
    2.6201   -2.1429    1.5135 H   0  0  0  0  0  0  0  0  0  0  0  0
    4.6650   -2.1170    0.0639 H   0  0  0  0  0  0  0  0  0  0  0  0
    5.5970    0.0441   -0.7256 H   0  0  0  0  0  0  0  0  0  0  0  0
    5.6284    2.4467   -0.7245 H   0  0  0  0  0  0  0  0  0  0  0  0
    3.9685    3.0521   -0.9338 H   0  0  0  0  0  0  0  0  0  0  0  0
    4.8002    3.2788    0.6156 H   0  0  0  0  0  0  0  0  0  0  0  0
    2.4775    2.1484    1.3804 H   0  0  0  0  0  0  0  0  0  0  0  0
    2.2677   -0.0464    7.9360 H   0  0  0  0  0  0  0  0  0  0  0  0
    1.8300    0.8251    9.4194 H   0  0  0  0  0  0  0  0  0  0  0  0
    1.8258   -0.9497    9.3989 H   0  0  0  0  0  0  0  0  0  0  0  0
   -0.1023   -0.9638   11.0211 H   0  0  0  0  0  0  0  0  0  0  0  0
   -1.6321   -0.0708   11.2065 H   0  0  0  0  0  0  0  0  0  0  0  0
   -0.0997    0.8214   11.0391 H   0  0  0  0  0  0  0  0  0  0  0  0
  1 26  1  0  0  0  0
  1 27  1  0  0  0  0
  2 24  1  0  0  0  0
  2  1  1  0  0  0  0
  3  2  2  0  0  0  0
  4  3  1  0  0  0  0
  4 22  2  0  0  0  0
  5 30  1  0  0  0  0
  5  4  1  0  0  0  0
  6  5  2  0  0  0  0
  7  8  2  0  0  0  0
  7  6  1  0  0  0  0
  9  7  2  0  0  0  0
 10 12  1  0  0  0  0
 10  9  2  0  0  0  0
 11 10  1  0  0  0  0
 12 13  1  0  0  0  0
 13 14  2  0  0  0  0
 13  6  1  0  0  0  0
 15 12  1  0  0  0  0
 16 15  1  0  0  0  0
 16 32  1  0  0  0  0
 17 16  2  0  0  0  0
 18 19  2  0  0  0  0
 18 17  1  0  0  0  0
 19 21  1  0  0  0  0
 20 19  1  0  0  0  0
 20 37  1  0  0  0  0
 21 38  1  0  0  0  0
 21 15  2  0  0  0  0
 22 23  1  0  0  0  0
 22 24  1  0  0  0  0
 23 41  1  0  0  0  0
 23 40  1  0  0  0  0
 24 25  1  0  0  0  0
 25 42  1  0  0  0  0
 25 44  1  0  0  0  0
 25 43  1  0  0  0  0
 28  1  1  0  0  0  0
 29  3  1  0  0  0  0
 31 11  1  0  0  0  0
 33 17  1  0  0  0  0
 34 18  1  0  0  0  0
 35 20  1  0  0  0  0
 36 20  1  0  0  0  0
 39 23  1  0  0  0  0
M  END
