000-843-859.xyz
 OpenBabel07262113383D
O=C1N=C(S)N(C(=O)/C/1=C/c1cc(n(c1C)c1ccccc1)C)c1ccccc1C
 51 54  0  0  0  0  0  0  0  0999 V2000
    4.6676    0.9383    8.5190 C   0  0  0  0  0  0  0  0  0  0  0  0
    3.2664    0.9316    8.0101 C   0  0  0  0  0  0  0  0  0  0  0  0
    2.7577    0.6158    6.7806 C   0  0  0  0  0  0  0  0  0  0  0  0
    1.3205    0.7567    6.8387 C   0  0  0  0  0  0  0  0  0  0  0  0
    0.2970    0.5809    5.8660 C   0  0  0  0  0  0  0  0  0  0  0  0
    0.2647    0.2696    4.5223 C   0  0  0  0  0  0  0  0  0  0  0  0
    1.4232   -0.0415    3.6506 C   0  0  0  0  0  0  0  0  0  0  0  0
    2.5408   -0.2944    4.0655 O   0  0  0  0  0  0  0  0  0  0  0  0
    1.1843    0.0000    2.2740 N   0  0  0  0  0  0  0  0  0  0  0  0
   -0.0000   -0.0000    1.7830 C   0  0  0  0  0  0  0  0  0  0  0  0
    0.0000    0.0000    0.0000 S   0  0  0  0  0  0  0  0  0  0  0  0
   -1.1655   -0.0285    2.5459 N   0  0  0  0  0  0  0  0  0  0  0  0
   -1.0956    0.2092    3.9484 C   0  0  0  0  0  0  0  0  0  0  0  0
   -2.1315    0.3208    4.5801 O   0  0  0  0  0  0  0  0  0  0  0  0
   -2.4579   -0.3338    2.0087 C   0  0  0  0  0  0  0  0  0  0  0  0
   -3.4042    0.6914    1.8735 C   0  0  0  0  0  0  0  0  0  0  0  0
   -4.6455    0.4237    1.2888 C   0  0  0  0  0  0  0  0  0  0  0  0
   -4.9376   -0.8782    0.8611 C   0  0  0  0  0  0  0  0  0  0  0  0
   -4.0042   -1.8985    1.0422 C   0  0  0  0  0  0  0  0  0  0  0  0
   -2.7501   -1.6532    1.6252 C   0  0  0  0  0  0  0  0  0  0  0  0
   -1.7370   -2.7511    1.7907 C   0  0  0  0  0  0  0  0  0  0  0  0
    1.0079    1.1628    8.1595 C   0  0  0  0  0  0  0  0  0  0  0  0
   -0.2957    1.4793    8.8101 C   0  0  0  0  0  0  0  0  0  0  0  0
    2.1841    1.2644    8.8445 N   0  0  0  0  0  0  0  0  0  0  0  0
    2.3057    1.6453   10.2146 C   0  0  0  0  0  0  0  0  0  0  0  0
    2.0976    0.6976   11.2221 C   0  0  0  0  0  0  0  0  0  0  0  0
    2.2192    1.0731   12.5618 C   0  0  0  0  0  0  0  0  0  0  0  0
    2.5535    2.3894   12.8935 C   0  0  0  0  0  0  0  0  0  0  0  0
    2.7650    3.3327   11.8837 C   0  0  0  0  0  0  0  0  0  0  0  0
    2.6398    2.9634   10.5425 C   0  0  0  0  0  0  0  0  0  0  0  0
    4.7967    0.2571    9.3769 H   0  0  0  0  0  0  0  0  0  0  0  0
    5.3474    0.6158    7.7191 H   0  0  0  0  0  0  0  0  0  0  0  0
    4.9838    1.9401    8.8548 H   0  0  0  0  0  0  0  0  0  0  0  0
    3.3084    0.2924    5.9051 H   0  0  0  0  0  0  0  0  0  0  0  0
   -0.7130    0.7456    6.2540 H   0  0  0  0  0  0  0  0  0  0  0  0
   -2.0501    0.8236   -0.6963 Au  0  0  0  0  0  0  0  0  0  0  0  0
   -3.1546    1.6902    2.2332 H   0  0  0  0  0  0  0  0  0  0  0  0
   -5.3830    1.2221    1.1828 H   0  0  0  0  0  0  0  0  0  0  0  0
   -5.9033   -1.0992    0.4012 H   0  0  0  0  0  0  0  0  0  0  0  0
   -4.2456   -2.9153    0.7231 H   0  0  0  0  0  0  0  0  0  0  0  0
   -0.9304   -2.6477    1.0458 H   0  0  0  0  0  0  0  0  0  0  0  0
   -1.2653   -2.7166    2.7842 H   0  0  0  0  0  0  0  0  0  0  0  0
   -2.2002   -3.7386    1.6583 H   0  0  0  0  0  0  0  0  0  0  0  0
   -0.5025    0.7999    9.6532 H   0  0  0  0  0  0  0  0  0  0  0  0
   -1.1238    1.3941    8.0964 H   0  0  0  0  0  0  0  0  0  0  0  0
   -0.2995    2.5034    9.2183 H   0  0  0  0  0  0  0  0  0  0  0  0
    1.8460   -0.3279   10.9450 H   0  0  0  0  0  0  0  0  0  0  0  0
    2.0562    0.3335   13.3489 H   0  0  0  0  0  0  0  0  0  0  0  0
    2.6505    2.6806   13.9418 H   0  0  0  0  0  0  0  0  0  0  0  0
    3.0262    4.3618   12.1403 H   0  0  0  0  0  0  0  0  0  0  0  0
    2.7967    3.6882    9.7413 H   0  0  0  0  0  0  0  0  0  0  0  0
  1 33  1  0  0  0  0
  1 31  1  0  0  0  0
  2  1  1  0  0  0  0
  2 24  1  0  0  0  0
  3  4  1  0  0  0  0
  3  2  2  0  0  0  0
  4 22  2  0  0  0  0
  5 35  1  0  0  0  0
  5  4  1  0  0  0  0
  6  5  2  0  0  0  0
  7  8  2  0  0  0  0
  7  6  1  0  0  0  0
  9  7  2  0  0  0  0
 10  9  2  0  0  0  0
 10 12  1  0  0  0  0
 11 10  1  0  0  0  0
 12 13  1  0  0  0  0
 13  6  1  0  0  0  0
 13 14  2  0  0  0  0
 15 12  1  0  0  0  0
 16 15  1  0  0  0  0
 16 37  1  0  0  0  0
 17 16  2  0  0  0  0
 18 19  2  0  0  0  0
 18 17  1  0  0  0  0
 19 20  1  0  0  0  0
 20 21  1  0  0  0  0
 20 15  2  0  0  0  0
 21 42  1  0  0  0  0
 22 23  1  0  0  0  0
 22 24  1  0  0  0  0
 23 46  1  0  0  0  0
 23 44  1  0  0  0  0
 24 25  1  0  0  0  0
 25 30  2  0  0  0  0
 25 26  1  0  0  0  0
 26 27  2  0  0  0  0
 27 28  1  0  0  0  0
 27 48  1  0  0  0  0
 28 49  1  0  0  0  0
 29 50  1  0  0  0  0
 29 28  2  0  0  0  0
 30 29  1  0  0  0  0
 32  1  1  0  0  0  0
 34  3  1  0  0  0  0
 36 11  1  0  0  0  0
 38 17  1  0  0  0  0
 39 18  1  0  0  0  0
 40 19  1  0  0  0  0
 41 21  1  0  0  0  0
 43 21  1  0  0  0  0
 45 23  1  0  0  0  0
 47 26  1  0  0  0  0
 51 30  1  0  0  0  0
M  END
