000-802-647.xyz
 OpenBabel07262113363D
CN1C(=NC(=O)/C(=C/c2cc(n(c2C)c2ccc(c(c2)[N+](=O)[O-])Cl)C)/C1=O)S
 43 45  0  0  0  0  0  0  0  0999 V2000
    2.4676   -0.0869    1.5438 C   0  0  0  0  0  0  0  0  0  0  0  0
    1.2531    0.0000    2.3535 N   0  0  0  0  0  0  0  0  0  0  0  0
    0.0000   -0.0000    1.7731 C   0  0  0  0  0  0  0  0  0  0  0  0
    0.0000    0.0000    0.0000 S   0  0  0  0  0  0  0  0  0  0  0  0
   -1.1260   -0.0025    2.4158 N   0  0  0  0  0  0  0  0  0  0  0  0
   -1.1611    0.0074    3.8051 C   0  0  0  0  0  0  0  0  0  0  0  0
   -2.2211   -0.0678    4.4014 O   0  0  0  0  0  0  0  0  0  0  0  0
    0.1482    0.1440    4.5238 C   0  0  0  0  0  0  0  0  0  0  0  0
    0.0860    0.1510    5.8959 C   0  0  0  0  0  0  0  0  0  0  0  0
    1.0669    0.3763    6.9134 C   0  0  0  0  0  0  0  0  0  0  0  0
    1.0038   -0.2212    8.2257 C   0  0  0  0  0  0  0  0  0  0  0  0
    2.0578    0.2403    8.9671 C   0  0  0  0  0  0  0  0  0  0  0  0
    2.5232   -0.1392   10.3332 C   0  0  0  0  0  0  0  0  0  0  0  0
    2.7529    1.1568    8.1599 N   0  0  0  0  0  0  0  0  0  0  0  0
    2.1639    1.2509    6.9162 C   0  0  0  0  0  0  0  0  0  0  0  0
    2.5812    2.2767    5.9235 C   0  0  0  0  0  0  0  0  0  0  0  0
    3.9153    1.8650    8.5512 C   0  0  0  0  0  0  0  0  0  0  0  0
    3.8937    2.7315    9.6524 C   0  0  0  0  0  0  0  0  0  0  0  0
    5.0418    3.4256   10.0226 C   0  0  0  0  0  0  0  0  0  0  0  0
    6.2367    3.2734    9.3069 C   0  0  0  0  0  0  0  0  0  0  0  0
    7.6057    4.2166    9.7888 Cl  0  0  0  0  0  0  0  0  0  0  0  0
    6.2443    2.4070    8.2014 C   0  0  0  0  0  0  0  0  0  0  0  0
    5.0958    1.7135    7.8233 C   0  0  0  0  0  0  0  0  0  0  0  0
    7.4514    2.1677    7.3840 N   0  0  0  0  0  0  0  0  0  0  0  0
    8.5247    2.1403    7.9538 O   0  0  0  0  0  0  0  0  0  0  0  0
    7.2713    1.9877    6.1906 O   0  0  0  0  0  0  0  0  0  0  0  0
    1.4034    0.0794    3.7633 C   0  0  0  0  0  0  0  0  0  0  0  0
    2.5234    0.0417    4.2455 O   0  0  0  0  0  0  0  0  0  0  0  0
    2.5572    0.7900    0.8853 H   0  0  0  0  0  0  0  0  0  0  0  0
    2.4532   -0.9973    0.9273 H   0  0  0  0  0  0  0  0  0  0  0  0
    3.3172   -0.1201    2.2336 H   0  0  0  0  0  0  0  0  0  0  0  0
   -2.3161   -0.0114   -0.2220 Au  0  0  0  0  0  0  0  0  0  0  0  0
   -0.9225   -0.0737    6.2649 H   0  0  0  0  0  0  0  0  0  0  0  0
    0.2782   -0.9644    8.5499 H   0  0  0  0  0  0  0  0  0  0  0  0
    3.5830   -0.4437   10.3346 H   0  0  0  0  0  0  0  0  0  0  0  0
    1.9267   -0.9872   10.6960 H   0  0  0  0  0  0  0  0  0  0  0  0
    2.4196    0.6772   11.0672 H   0  0  0  0  0  0  0  0  0  0  0  0
    1.7321    2.5219    5.2709 H   0  0  0  0  0  0  0  0  0  0  0  0
    2.9209    3.1977    6.4212 H   0  0  0  0  0  0  0  0  0  0  0  0
    3.3843    1.9080    5.2674 H   0  0  0  0  0  0  0  0  0  0  0  0
    2.9653    2.8776   10.2055 H   0  0  0  0  0  0  0  0  0  0  0  0
    5.0244    4.1161   10.8665 H   0  0  0  0  0  0  0  0  0  0  0  0
    5.1371    1.0549    6.9568 H   0  0  0  0  0  0  0  0  0  0  0  0
  1 31  1  0  0  0  0
  1  2  1  0  0  0  0
  2 27  1  0  0  0  0
  3  2  1  0  0  0  0
  3  5  2  0  0  0  0
  4  3  1  0  0  0  0
  5  6  2  0  0  0  0
  6  7  2  0  0  0  0
  6  8  1  0  0  0  0
  8  9  2  0  0  0  0
  9 33  1  0  0  0  0
  9 10  1  0  0  0  0
 10 15  2  0  0  0  0
 10 11  1  0  0  0  0
 11 34  1  0  0  0  0
 11 12  2  0  0  0  0
 12 13  1  0  0  0  0
 13 35  1  0  0  0  0
 13 36  1  0  0  0  0
 13 37  1  0  0  0  0
 14 17  1  0  0  0  0
 14 12  1  0  0  0  0
 15 14  1  0  0  0  0
 16 39  1  0  0  0  0
 16 15  1  0  0  0  0
 17 18  2  0  0  0  0
 18 19  1  0  0  0  0
 18 41  1  0  0  0  0
 19 42  1  0  0  0  0
 20 21  1  0  0  0  0
 20 19  2  0  0  0  0
 22 20  1  0  0  0  0
 23 22  2  0  0  0  0
 23 17  1  0  0  0  0
 24 25  2  0  0  0  0
 24 22  1  0  0  0  0
 26 24  2  0  0  0  0
 27 28  2  0  0  0  0
 27  8  1  0  0  0  0
 29  1  1  0  0  0  0
 30  1  1  0  0  0  0
 32  4  1  0  0  0  0
 38 16  1  0  0  0  0
 40 16  1  0  0  0  0
 43 23  1  0  0  0  0
M  END
