000-745-406.xyz
 OpenBabel07262113343D
Fc1ccc(cc1)N1C(=NC(=O)/C(=C/c2ccc[nH]2)/C1=O)S
 32 34  0  0  0  0  0  0  0  0999 V2000
    5.7756    0.0065   -0.8946 F   0  0  0  0  0  0  0  0  0  0  0  0
    4.6903    0.0049   -0.1122 C   0  0  0  0  0  0  0  0  0  0  0  0
    4.1382    1.2228    0.2810 C   0  0  0  0  0  0  0  0  0  0  0  0
    3.0071    1.2160    1.0951 C   0  0  0  0  0  0  0  0  0  0  0  0
    2.4435    0.0016    1.4968 C   0  0  0  0  0  0  0  0  0  0  0  0
    3.0144   -1.2111    1.1004 C   0  0  0  0  0  0  0  0  0  0  0  0
    4.1456   -1.2146    0.2864 C   0  0  0  0  0  0  0  0  0  0  0  0
    1.2720   -0.0000    2.3319 N   0  0  0  0  0  0  0  0  0  0  0  0
    0.0000   -0.0000    1.7725 C   0  0  0  0  0  0  0  0  0  0  0  0
    0.0000    0.0000    0.0000 S   0  0  0  0  0  0  0  0  0  0  0  0
   -1.0991   -0.0003    2.4465 N   0  0  0  0  0  0  0  0  0  0  0  0
   -1.0888   -0.0007    3.8423 C   0  0  0  0  0  0  0  0  0  0  0  0
   -2.1355    0.0001    4.4653 O   0  0  0  0  0  0  0  0  0  0  0  0
    0.2436   -0.0028    4.5258 C   0  0  0  0  0  0  0  0  0  0  0  0
    0.2026   -0.0049    5.9101 C   0  0  0  0  0  0  0  0  0  0  0  0
    1.1750   -0.0076    6.9323 C   0  0  0  0  0  0  0  0  0  0  0  0
    0.9300   -0.0097    8.3271 C   0  0  0  0  0  0  0  0  0  0  0  0
    2.1698   -0.0122    8.9774 C   0  0  0  0  0  0  0  0  0  0  0  0
    3.1530   -0.0115    7.9741 C   0  0  0  0  0  0  0  0  0  0  0  0
    2.5499   -0.0087    6.7715 N   0  0  0  0  0  0  0  0  0  0  0  0
    1.4617   -0.0023    3.7292 C   0  0  0  0  0  0  0  0  0  0  0  0
    2.6211   -0.0037    4.1440 O   0  0  0  0  0  0  0  0  0  0  0  0
    4.5982    2.1538   -0.0535 H   0  0  0  0  0  0  0  0  0  0  0  0
    2.5503    2.1524    1.4185 H   0  0  0  0  0  0  0  0  0  0  0  0
    2.5634   -2.1489    1.4279 H   0  0  0  0  0  0  0  0  0  0  0  0
    4.6114   -2.1442   -0.0438 H   0  0  0  0  0  0  0  0  0  0  0  0
   -2.3081    0.0002   -0.2564 Au  0  0  0  0  0  0  0  0  0  0  0  0
   -0.8263   -0.0045    6.2857 H   0  0  0  0  0  0  0  0  0  0  0  0
   -0.0586   -0.0095    8.7823 H   0  0  0  0  0  0  0  0  0  0  0  0
    2.3551   -0.0142   10.0491 H   0  0  0  0  0  0  0  0  0  0  0  0
    4.2379   -0.0127    8.0630 H   0  0  0  0  0  0  0  0  0  0  0  0
    2.9485   -0.0074    5.8201 H   0  0  0  0  0  0  0  0  0  0  0  0
  1  2  1  0  0  0  0
  2  3  2  0  0  0  0
  2  7  1  0  0  0  0
  3  4  1  0  0  0  0
  4 24  1  0  0  0  0
  4  5  2  0  0  0  0
  5  8  1  0  0  0  0
  6 25  1  0  0  0  0
  6  5  1  0  0  0  0
  7  6  2  0  0  0  0
  8 21  1  0  0  0  0
  9  8  1  0  0  0  0
  9 11  2  0  0  0  0
 10  9  1  0  0  0  0
 11 12  2  0  0  0  0
 12 13  2  0  0  0  0
 12 14  1  0  0  0  0
 14 15  2  0  0  0  0
 15 28  1  0  0  0  0
 15 16  1  0  0  0  0
 16 17  2  0  0  0  0
 17 29  1  0  0  0  0
 17 18  1  0  0  0  0
 18 30  1  0  0  0  0
 19 31  1  0  0  0  0
 19 18  2  0  0  0  0
 20 16  1  0  0  0  0
 20 19  1  0  0  0  0
 21 22  2  0  0  0  0
 21 14  1  0  0  0  0
 23  3  1  0  0  0  0
 26  7  1  0  0  0  0
 27 10  1  0  0  0  0
 32 20  1  0  0  0  0
M  END
