000-724-978.xyz
 OpenBabel07262113333D
O=C1N=C(S)N(C(=O)/C/1=C\c1ccc(o1)N1CCOCC1)c1cccc(c1Cl)Cl
 44 47  0  0  0  0  0  0  0  0999 V2000
    0.0000    0.0000    0.0000 S   0  0  0  0  0  0  0  0  0  0  0  0
   -0.0000   -0.0000    1.7738 C   0  0  0  0  0  0  0  0  0  0  0  0
    1.1011   -0.0000    2.4459 N   0  0  0  0  0  0  0  0  0  0  0  0
    1.0947   -0.0102    3.8432 C   0  0  0  0  0  0  0  0  0  0  0  0
    2.1455   -0.0074    4.4627 O   0  0  0  0  0  0  0  0  0  0  0  0
   -0.2321   -0.0272    4.5252 C   0  0  0  0  0  0  0  0  0  0  0  0
   -0.1984   -0.0551    5.9096 C   0  0  0  0  0  0  0  0  0  0  0  0
   -1.1755   -0.0872    6.9112 C   0  0  0  0  0  0  0  0  0  0  0  0
   -2.5684   -0.1069    7.0260 C   0  0  0  0  0  0  0  0  0  0  0  0
   -2.8976   -0.1416    8.3897 C   0  0  0  0  0  0  0  0  0  0  0  0
   -1.6761   -0.1440    9.0780 C   0  0  0  0  0  0  0  0  0  0  0  0
   -0.6536   -0.1127    8.2225 O   0  0  0  0  0  0  0  0  0  0  0  0
   -1.4007   -0.1753   10.3966 N   0  0  0  0  0  0  0  0  0  0  0  0
   -0.0408   -0.0636   10.9176 C   0  0  0  0  0  0  0  0  0  0  0  0
   -0.0411    0.8513   12.1365 C   0  0  0  0  0  0  0  0  0  0  0  0
   -0.9494    0.4353   13.1464 O   0  0  0  0  0  0  0  0  0  0  0  0
   -1.9248   -0.5017   12.7466 C   0  0  0  0  0  0  0  0  0  0  0  0
   -2.4929   -0.2043   11.3644 C   0  0  0  0  0  0  0  0  0  0  0  0
   -1.4568   -0.0215    3.7462 C   0  0  0  0  0  0  0  0  0  0  0  0
   -2.6013   -0.0368    4.1726 O   0  0  0  0  0  0  0  0  0  0  0  0
   -1.2661    0.0085    2.3356 N   0  0  0  0  0  0  0  0  0  0  0  0
   -2.4360   -0.0728    1.5172 C   0  0  0  0  0  0  0  0  0  0  0  0
   -3.0594    1.0915    1.0687 C   0  0  0  0  0  0  0  0  0  0  0  0
   -4.1968    1.0085    0.2668 C   0  0  0  0  0  0  0  0  0  0  0  0
   -4.7167   -0.2376   -0.0815 C   0  0  0  0  0  0  0  0  0  0  0  0
   -4.1023   -1.4087    0.3729 C   0  0  0  0  0  0  0  0  0  0  0  0
   -4.7728   -2.9482   -0.0754 Cl  0  0  0  0  0  0  0  0  0  0  0  0
   -2.9570   -1.3349    1.1803 C   0  0  0  0  0  0  0  0  0  0  0  0
   -2.1679   -2.7641    1.7542 Cl  0  0  0  0  0  0  0  0  0  0  0  0
    2.3082   -0.0771   -0.2398 Au  0  0  0  0  0  0  0  0  0  0  0  0
    0.8267   -0.0548    6.2973 H   0  0  0  0  0  0  0  0  0  0  0  0
   -3.2324   -0.0930    6.1685 H   0  0  0  0  0  0  0  0  0  0  0  0
   -3.8893   -0.1523    8.8315 H   0  0  0  0  0  0  0  0  0  0  0  0
    0.3586   -1.0598   11.1801 H   0  0  0  0  0  0  0  0  0  0  0  0
    0.6100    0.3516   10.1376 H   0  0  0  0  0  0  0  0  0  0  0  0
    0.9700    0.8809   12.5751 H   0  0  0  0  0  0  0  0  0  0  0  0
   -0.2967    1.8786   11.8142 H   0  0  0  0  0  0  0  0  0  0  0  0
   -2.7335   -0.4617   13.4912 H   0  0  0  0  0  0  0  0  0  0  0  0
   -1.5169   -1.5322   12.7593 H   0  0  0  0  0  0  0  0  0  0  0  0
   -3.0289    0.7634   11.3737 H   0  0  0  0  0  0  0  0  0  0  0  0
   -3.2208   -0.9862   11.0884 H   0  0  0  0  0  0  0  0  0  0  0  0
   -2.6336    2.0540    1.3537 H   0  0  0  0  0  0  0  0  0  0  0  0
   -4.6839    1.9178   -0.0900 H   0  0  0  0  0  0  0  0  0  0  0  0
   -5.6050   -0.3218   -0.7087 H   0  0  0  0  0  0  0  0  0  0  0  0
  1  2  1  0  0  0  0
  2 21  1  0  0  0  0
  2  3  2  0  0  0  0
  3  4  2  0  0  0  0
  4  5  2  0  0  0  0
  4  6  1  0  0  0  0
  6  7  2  0  0  0  0
  7 31  1  0  0  0  0
  7  8  1  0  0  0  0
  8  9  2  0  0  0  0
  8 12  1  0  0  0  0
  9 10  1  0  0  0  0
 10 33  1  0  0  0  0
 10 11  2  0  0  0  0
 11 13  1  0  0  0  0
 12 11  1  0  0  0  0
 13 14  1  0  0  0  0
 13 18  1  0  0  0  0
 14 34  1  0  0  0  0
 14 15  1  0  0  0  0
 15 36  1  0  0  0  0
 15 16  1  0  0  0  0
 17 39  1  0  0  0  0
 17 16  1  0  0  0  0
 17 38  1  0  0  0  0
 18 40  1  0  0  0  0
 18 17  1  0  0  0  0
 19 20  2  0  0  0  0
 19  6  1  0  0  0  0
 21 19  1  0  0  0  0
 22 21  1  0  0  0  0
 23 42  1  0  0  0  0
 23 22  2  0  0  0  0
 24 23  1  0  0  0  0
 25 24  2  0  0  0  0
 25 26  1  0  0  0  0
 26 28  2  0  0  0  0
 27 26  1  0  0  0  0
 28 22  1  0  0  0  0
 28 29  1  0  0  0  0
 30  1  1  0  0  0  0
 32  9  1  0  0  0  0
 35 14  1  0  0  0  0
 37 15  1  0  0  0  0
 41 18  1  0  0  0  0
 43 24  1  0  0  0  0
 44 25  1  0  0  0  0
M  END
