000-845-978.xyz
 OpenBabel07262113383D
Clc1cccc(c1)N1C(=NC(=O)/C(=C\c2cc(n(c2C)C)C)/C1=O)S
 41 43  0  0  0  0  0  0  0  0999 V2000
    4.6452    1.0692    8.4745 C   0  0  0  0  0  0  0  0  0  0  0  0
    3.2345    1.0824    7.9890 C   0  0  0  0  0  0  0  0  0  0  0  0
    2.7251    0.7218    6.7709 C   0  0  0  0  0  0  0  0  0  0  0  0
    1.2951    0.9106    6.8101 C   0  0  0  0  0  0  0  0  0  0  0  0
    0.2730    0.7172    5.8413 C   0  0  0  0  0  0  0  0  0  0  0  0
    0.2425    0.3473    4.5118 C   0  0  0  0  0  0  0  0  0  0  0  0
    1.4000   -0.0283    3.6652 C   0  0  0  0  0  0  0  0  0  0  0  0
    2.5020   -0.3133    4.0985 O   0  0  0  0  0  0  0  0  0  0  0  0
    1.1783    0.0000    2.2840 N   0  0  0  0  0  0  0  0  0  0  0  0
    0.0000   -0.0000    1.7822 C   0  0  0  0  0  0  0  0  0  0  0  0
    0.0000    0.0000    0.0000 S   0  0  0  0  0  0  0  0  0  0  0  0
   -1.1728   -0.0142    2.5375 N   0  0  0  0  0  0  0  0  0  0  0  0
   -1.1135    0.2864    3.9310 C   0  0  0  0  0  0  0  0  0  0  0  0
   -2.1521    0.4450    4.5476 O   0  0  0  0  0  0  0  0  0  0  0  0
   -2.4494   -0.3540    1.9937 C   0  0  0  0  0  0  0  0  0  0  0  0
   -3.4776    0.5976    1.9446 C   0  0  0  0  0  0  0  0  0  0  0  0
   -4.6977    0.2564    1.3543 C   0  0  0  0  0  0  0  0  0  0  0  0
   -4.9003   -1.0200    0.8185 C   0  0  0  0  0  0  0  0  0  0  0  0
   -3.8716   -1.9610    0.9006 C   0  0  0  0  0  0  0  0  0  0  0  0
   -4.1079   -3.5573    0.2389 Cl  0  0  0  0  0  0  0  0  0  0  0  0
   -2.6488   -1.6429    1.4962 C   0  0  0  0  0  0  0  0  0  0  0  0
    0.9930    1.3928    8.1091 C   0  0  0  0  0  0  0  0  0  0  0  0
   -0.3065    1.7679    8.7348 C   0  0  0  0  0  0  0  0  0  0  0  0
    2.1628    1.4931    8.7976 N   0  0  0  0  0  0  0  0  0  0  0  0
    2.2642    1.9441   10.1705 C   0  0  0  0  0  0  0  0  0  0  0  0
    4.7877    0.4030    9.3431 H   0  0  0  0  0  0  0  0  0  0  0  0
    5.0027    2.0730    8.7634 H   0  0  0  0  0  0  0  0  0  0  0  0
    5.2965    0.7060    7.6683 H   0  0  0  0  0  0  0  0  0  0  0  0
    3.2734    0.3399    5.9178 H   0  0  0  0  0  0  0  0  0  0  0  0
   -0.7351    0.9250    6.2135 H   0  0  0  0  0  0  0  0  0  0  0  0
   -1.9898    0.9634   -0.6840 Au  0  0  0  0  0  0  0  0  0  0  0  0
   -3.3150    1.5858    2.3726 H   0  0  0  0  0  0  0  0  0  0  0  0
   -5.5042    0.9917    1.3134 H   0  0  0  0  0  0  0  0  0  0  0  0
   -5.8466   -1.2907    0.3490 H   0  0  0  0  0  0  0  0  0  0  0  0
   -1.8470   -2.3791    1.5390 H   0  0  0  0  0  0  0  0  0  0  0  0
   -1.1407    1.6034    8.0424 H   0  0  0  0  0  0  0  0  0  0  0  0
   -0.3246    2.8310    9.0318 H   0  0  0  0  0  0  0  0  0  0  0  0
   -0.5056    1.1746    9.6438 H   0  0  0  0  0  0  0  0  0  0  0  0
    1.7300    1.2642   10.8533 H   0  0  0  0  0  0  0  0  0  0  0  0
    1.8401    2.9537   10.2860 H   0  0  0  0  0  0  0  0  0  0  0  0
    3.3173    1.9769   10.4704 H   0  0  0  0  0  0  0  0  0  0  0  0
  1 27  1  0  0  0  0
  1 26  1  0  0  0  0
  2  1  1  0  0  0  0
  2 24  1  0  0  0  0
  3  4  1  0  0  0  0
  3  2  2  0  0  0  0
  4 22  2  0  0  0  0
  5 30  1  0  0  0  0
  5  4  1  0  0  0  0
  6  5  2  0  0  0  0
  7  8  2  0  0  0  0
  7  6  1  0  0  0  0
  9  7  2  0  0  0  0
 10  9  2  0  0  0  0
 10 12  1  0  0  0  0
 11 10  1  0  0  0  0
 12 13  1  0  0  0  0
 13  6  1  0  0  0  0
 13 14  2  0  0  0  0
 15 12  1  0  0  0  0
 16 15  1  0  0  0  0
 16 32  1  0  0  0  0
 17 16  2  0  0  0  0
 18 19  2  0  0  0  0
 18 17  1  0  0  0  0
 19 21  1  0  0  0  0
 20 19  1  0  0  0  0
 21 35  1  0  0  0  0
 21 15  2  0  0  0  0
 22 23  1  0  0  0  0
 22 24  1  0  0  0  0
 23 37  1  0  0  0  0
 23 38  1  0  0  0  0
 24 25  1  0  0  0  0
 25 40  1  0  0  0  0
 25 41  1  0  0  0  0
 25 39  1  0  0  0  0
 28  1  1  0  0  0  0
 29  3  1  0  0  0  0
 31 11  1  0  0  0  0
 33 17  1  0  0  0  0
 34 18  1  0  0  0  0
 36 23  1  0  0  0  0
M  END
