000-723-310.xyz
 OpenBabel07262113333D
Cc1cccc(c1)N1C(=NC(=O)/C(=C\c2ccc(o2)[N+](=O)[O-])/C1=O)S
 36 38  0  0  0  0  0  0  0  0999 V2000
    4.9814    2.1346   -0.2073 C   0  0  0  0  0  0  0  0  0  0  0  0
    4.2594    0.8960    0.2579 C   0  0  0  0  0  0  0  0  0  0  0  0
    4.6951   -0.3872   -0.1022 C   0  0  0  0  0  0  0  0  0  0  0  0
    4.0214   -1.5310    0.3364 C   0  0  0  0  0  0  0  0  0  0  0  0
    2.8930   -1.4137    1.1456 C   0  0  0  0  0  0  0  0  0  0  0  0
    2.4477   -0.1376    1.5000 C   0  0  0  0  0  0  0  0  0  0  0  0
    3.1220    1.0043    1.0696 C   0  0  0  0  0  0  0  0  0  0  0  0
    1.2753   -0.0000    2.3278 N   0  0  0  0  0  0  0  0  0  0  0  0
    0.0000    0.0000    1.7676 C   0  0  0  0  0  0  0  0  0  0  0  0
    0.0000    0.0000    0.0000 S   0  0  0  0  0  0  0  0  0  0  0  0
   -1.1008   -0.0028    2.4431 N   0  0  0  0  0  0  0  0  0  0  0  0
   -1.0942    0.0020    3.8348 C   0  0  0  0  0  0  0  0  0  0  0  0
   -2.0761   -0.3085    4.4746 O   0  0  0  0  0  0  0  0  0  0  0  0
    0.2031    0.3766    4.4864 C   0  0  0  0  0  0  0  0  0  0  0  0
    0.3674    0.7851    5.7737 C   0  0  0  0  0  0  0  0  0  0  0  0
   -0.5694    1.1640    6.7878 C   0  0  0  0  0  0  0  0  0  0  0  0
   -0.3341    1.3634    8.1445 C   0  0  0  0  0  0  0  0  0  0  0  0
   -1.5652    1.7574    8.7243 C   0  0  0  0  0  0  0  0  0  0  0  0
   -2.4478    1.7904    7.6706 C   0  0  0  0  0  0  0  0  0  0  0  0
   -1.8727    1.4429    6.5168 O   0  0  0  0  0  0  0  0  0  0  0  0
   -3.8377    2.1685    7.6460 N   0  0  0  0  0  0  0  0  0  0  0  0
   -4.3334    2.4155    8.7384 O   0  0  0  0  0  0  0  0  0  0  0  0
   -4.3955    2.2197    6.5662 O   0  0  0  0  0  0  0  0  0  0  0  0
    1.4629    0.2087    3.7072 C   0  0  0  0  0  0  0  0  0  0  0  0
    2.5792    0.2662    4.1791 O   0  0  0  0  0  0  0  0  0  0  0  0
    4.3137    2.7866   -0.7940 H   0  0  0  0  0  0  0  0  0  0  0  0
    5.3430    2.7277    0.6485 H   0  0  0  0  0  0  0  0  0  0  0  0
    5.8479    1.8843   -0.8358 H   0  0  0  0  0  0  0  0  0  0  0  0
    5.5791   -0.4922   -0.7363 H   0  0  0  0  0  0  0  0  0  0  0  0
    4.3808   -2.5203    0.0451 H   0  0  0  0  0  0  0  0  0  0  0  0
    2.3517   -2.2930    1.4979 H   0  0  0  0  0  0  0  0  0  0  0  0
    2.7483    1.9856    1.3696 H   0  0  0  0  0  0  0  0  0  0  0  0
   -2.3059    0.0032   -0.2711 Au  0  0  0  0  0  0  0  0  0  0  0  0
    1.4099    0.8641    6.0999 H   0  0  0  0  0  0  0  0  0  0  0  0
    0.6220    1.2296    8.6457 H   0  0  0  0  0  0  0  0  0  0  0  0
   -1.7972    1.9961    9.7575 H   0  0  0  0  0  0  0  0  0  0  0  0
  1  2  1  0  0  0  0
  1 27  1  0  0  0  0
  2  7  1  0  0  0  0
  3  2  2  0  0  0  0
  3  4  1  0  0  0  0
  4  5  2  0  0  0  0
  5 31  1  0  0  0  0
  5  6  1  0  0  0  0
  6  8  1  0  0  0  0
  7 32  1  0  0  0  0
  7  6  2  0  0  0  0
  8 24  1  0  0  0  0
  9  8  1  0  0  0  0
  9 11  2  0  0  0  0
 10  9  1  0  0  0  0
 11 12  2  0  0  0  0
 12 13  2  0  0  0  0
 12 14  1  0  0  0  0
 14 15  2  0  0  0  0
 15 34  1  0  0  0  0
 15 16  1  0  0  0  0
 16 17  2  0  0  0  0
 17 35  1  0  0  0  0
 17 18  1  0  0  0  0
 18 36  1  0  0  0  0
 19 18  2  0  0  0  0
 20 16  1  0  0  0  0
 20 19  1  0  0  0  0
 21 19  1  0  0  0  0
 21 22  2  0  0  0  0
 23 21  2  0  0  0  0
 24 25  2  0  0  0  0
 24 14  1  0  0  0  0
 26  1  1  0  0  0  0
 28  1  1  0  0  0  0
 29  3  1  0  0  0  0
 30  4  1  0  0  0  0
 33 10  1  0  0  0  0
M  END
