000-772-247.xyz
 OpenBabel07262113363D
CCN1C(=NC(=O)/C(=C/c2cc(n(c2C)c2ccc(cc2)Cl)C)/C1=O)S
 44 46  0  0  1  0  0  0  0  0999 V2000
    2.8978    1.5496    1.3381 C   0  0  0  0  0  0  0  0  0  0  0  0
    2.4909    0.1052    1.6070 C   0  0  0  0  0  0  0  0  0  0  0  0
    1.2421   -0.0000    2.3779 N   0  0  0  0  0  0  0  0  0  0  0  0
   -0.0000    0.0000    1.7775 C   0  0  0  0  0  0  0  0  0  0  0  0
    0.0000    0.0000    0.0000 S   0  0  0  0  0  0  0  0  0  0  0  0
   -1.1334    0.0064    2.4071 N   0  0  0  0  0  0  0  0  0  0  0  0
   -1.1899    0.0089    3.7974 C   0  0  0  0  0  0  0  0  0  0  0  0
   -2.2634    0.0598    4.3725 O   0  0  0  0  0  0  0  0  0  0  0  0
    0.1090   -0.0720    4.5382 C   0  0  2  0  0  0  0  0  0  0  0  0
    0.0252   -0.0314    5.9111 C   0  0  0  0  0  0  0  0  0  0  0  0
    0.9868   -0.2057    6.9521 C   0  0  0  0  0  0  0  0  0  0  0  0
    0.8708    0.4103    8.2527 C   0  0  0  0  0  0  0  0  0  0  0  0
    1.9242   -0.0015    9.0243 C   0  0  0  0  0  0  0  0  0  0  0  0
    2.3441    0.4042   10.3971 C   0  0  0  0  0  0  0  0  0  0  0  0
    2.6696   -0.9049    8.2505 N   0  0  0  0  0  0  0  0  0  0  0  0
    2.1167   -1.0419    6.9995 C   0  0  0  0  0  0  0  0  0  0  0  0
    2.5992   -2.0678    6.0379 C   0  0  0  0  0  0  0  0  0  0  0  0
    3.8452   -1.5730    8.6908 C   0  0  0  0  0  0  0  0  0  0  0  0
    3.7844   -2.4964    9.7407 C   0  0  0  0  0  0  0  0  0  0  0  0
    4.9407   -3.1451   10.1734 C   0  0  0  0  0  0  0  0  0  0  0  0
    6.1571   -2.8749    9.5395 C   0  0  0  0  0  0  0  0  0  0  0  0
    7.6046   -3.6891   10.0722 Cl  0  0  0  0  0  0  0  0  0  0  0  0
    6.2275   -1.9621    8.4828 C   0  0  0  0  0  0  0  0  0  0  0  0
    5.0691   -1.3083    8.0650 C   0  0  0  0  0  0  0  0  0  0  0  0
    1.3688    0.0001    3.7915 C   0  0  0  0  0  0  0  0  0  0  0  0
    2.4846    0.1055    4.2773 O   0  0  0  0  0  0  0  0  0  0  0  0
    2.1238    2.0774    0.7610 H   0  0  0  0  0  0  0  0  0  0  0  0
    3.0644    2.0810    2.2865 H   0  0  0  0  0  0  0  0  0  0  0  0
    3.8342    1.5758    0.7591 H   0  0  0  0  0  0  0  0  0  0  0  0
    3.2625   -0.4016    2.1988 H   0  0  0  0  0  0  0  0  0  0  0  0
    2.3547   -0.4548    0.6712 H   0  0  0  0  0  0  0  0  0  0  0  0
   -2.3205   -0.0183   -0.2025 Au  0  0  0  0  0  0  0  0  0  0  0  0
   -0.9933    0.1879    6.2551 H   0  0  0  0  0  0  0  0  0  0  0  0
    0.1101    1.1301    8.5479 H   0  0  0  0  0  0  0  0  0  0  0  0
    1.6866    1.2074   10.7566 H   0  0  0  0  0  0  0  0  0  0  0  0
    3.3815    0.7782   10.4120 H   0  0  0  0  0  0  0  0  0  0  0  0
    2.2907   -0.4240   11.1226 H   0  0  0  0  0  0  0  0  0  0  0  0
    3.3952   -1.6710    5.3895 H   0  0  0  0  0  0  0  0  0  0  0  0
    1.7763   -2.3681    5.3748 H   0  0  0  0  0  0  0  0  0  0  0  0
    2.9754   -2.9580    6.5643 H   0  0  0  0  0  0  0  0  0  0  0  0
    2.8238   -2.7147   10.2099 H   0  0  0  0  0  0  0  0  0  0  0  0
    4.9035   -3.8665   10.9905 H   0  0  0  0  0  0  0  0  0  0  0  0
    7.1854   -1.7628    8.0010 H   0  0  0  0  0  0  0  0  0  0  0  0
    5.1067   -0.5826    7.2507 H   0  0  0  0  0  0  0  0  0  0  0  0
  1  2  1  0  0  0  0
  1 28  1  0  0  0  0
  2 30  1  0  0  0  0
  2  3  1  0  0  0  0
  3 25  1  0  0  0  0
  4  3  1  0  0  0  0
  4  6  2  0  0  0  0
  5  4  1  0  0  0  0
  6  7  2  0  0  0  0
  7  8  2  0  0  0  0
  7  9  1  0  0  0  0
  9 10  1  1  0  0  0
 10 33  1  0  0  0  0
 10 11  1  0  0  0  0
 11 16  2  0  0  0  0
 11 12  1  0  0  0  0
 12 34  1  0  0  0  0
 12 13  2  0  0  0  0
 13 14  1  0  0  0  0
 14 36  1  0  0  0  0
 14 35  1  0  0  0  0
 14 37  1  0  0  0  0
 15 18  1  0  0  0  0
 15 13  1  0  0  0  0
 16 15  1  0  0  0  0
 17 40  1  0  0  0  0
 17 16  1  0  0  0  0
 18 19  2  0  0  0  0
 19 20  1  0  0  0  0
 19 41  1  0  0  0  0
 20 42  1  0  0  0  0
 21 22  1  0  0  0  0
 21 20  2  0  0  0  0
 23 21  1  0  0  0  0
 24 23  2  0  0  0  0
 24 18  1  0  0  0  0
 25 26  2  0  0  0  0
 25  9  1  0  0  0  0
 27  1  1  0  0  0  0
 29  1  1  0  0  0  0
 31  2  1  0  0  0  0
 32  5  1  0  0  0  0
 38 17  1  0  0  0  0
 39 17  1  0  0  0  0
 43 23  1  0  0  0  0
 44 24  1  0  0  0  0
M  RAD  2   9   2  10   2
M  END
