000-794-110.xyz
 OpenBabel07262113363D
CCOc1ccc(cc1)/C=C/1\C(=NC(=NC1=O)S)O
 31 32  0  0  0  0  0  0  0  0999 V2000
   -4.4178   -0.7573   12.5597 C   0  0  0  0  0  0  0  0  0  0  0  0
   -3.2505   -0.5371   11.6208 C   0  0  0  0  0  0  0  0  0  0  0  0
   -3.7198   -0.7182   10.2880 O   0  0  0  0  0  0  0  0  0  0  0  0
   -2.8760   -0.5741    9.2532 C   0  0  0  0  0  0  0  0  0  0  0  0
   -3.4240   -0.7747    7.9691 C   0  0  0  0  0  0  0  0  0  0  0  0
   -2.6446   -0.6406    6.8356 C   0  0  0  0  0  0  0  0  0  0  0  0
   -1.2680   -0.3068    6.9284 C   0  0  0  0  0  0  0  0  0  0  0  0
   -0.3229   -0.1600    5.8453 C   0  0  0  0  0  0  0  0  0  0  0  0
   -0.3312   -0.0949    4.4727 C   0  0  0  0  0  0  0  0  0  0  0  0
   -1.4362   -0.0357    3.5381 C   0  0  0  0  0  0  0  0  0  0  0  0
   -2.6910    0.0109    3.9959 O   0  0  0  0  0  0  0  0  0  0  0  0
   -1.2871    0.0095    2.2477 N   0  0  0  0  0  0  0  0  0  0  0  0
   -0.0000    0.0000    1.7622 C   0  0  0  0  0  0  0  0  0  0  0  0
    0.0000    0.0000    0.0000 S   0  0  0  0  0  0  0  0  0  0  0  0
    1.1075    0.0000    2.4439 N   0  0  0  0  0  0  0  0  0  0  0  0
    1.0461   -0.0177    3.8298 C   0  0  0  0  0  0  0  0  0  0  0  0
    2.0572    0.0135    4.5096 O   0  0  0  0  0  0  0  0  0  0  0  0
   -0.7358   -0.1363    8.2297 C   0  0  0  0  0  0  0  0  0  0  0  0
   -1.5124   -0.2519    9.3759 C   0  0  0  0  0  0  0  0  0  0  0  0
   -4.0941   -0.6257   13.6033 H   0  0  0  0  0  0  0  0  0  0  0  0
   -5.2246   -0.0388   12.3506 H   0  0  0  0  0  0  0  0  0  0  0  0
   -4.8218   -1.7742   12.4444 H   0  0  0  0  0  0  0  0  0  0  0  0
   -2.4346   -1.2536   11.8265 H   0  0  0  0  0  0  0  0  0  0  0  0
   -2.8374    0.4819   11.7324 H   0  0  0  0  0  0  0  0  0  0  0  0
   -4.4806   -1.0390    7.8994 H   0  0  0  0  0  0  0  0  0  0  0  0
   -3.0912   -0.8010    5.8599 H   0  0  0  0  0  0  0  0  0  0  0  0
    0.7129   -0.0860    6.2003 H   0  0  0  0  0  0  0  0  0  0  0  0
   -3.2545    0.0810    3.2038 H   0  0  0  0  0  0  0  0  0  0  0  0
    2.2859   -0.0163   -0.3405 Au  0  0  0  0  0  0  0  0  0  0  0  0
    0.3257    0.1002    8.3339 H   0  0  0  0  0  0  0  0  0  0  0  0
   -1.0537   -0.1008   10.3520 H   0  0  0  0  0  0  0  0  0  0  0  0
  1 20  1  0  0  0  0
  2 24  1  0  0  0  0
  2 23  1  0  0  0  0
  2  1  1  0  0  0  0
  3  2  1  0  0  0  0
  4 19  1  0  0  0  0
  4  3  1  0  0  0  0
  5  4  2  0  0  0  0
  6  7  2  0  0  0  0
  6  5  1  0  0  0  0
  7 18  1  0  0  0  0
  8 27  1  0  0  0  0
  8  7  1  0  0  0  0
  9  8  2  0  0  0  0
 10 11  1  0  0  0  0
 10  9  1  0  0  0  0
 12 10  2  0  0  0  0
 13 12  2  0  0  0  0
 13 15  2  0  0  0  0
 14 13  1  0  0  0  0
 15 16  2  0  0  0  0
 16  9  1  0  0  0  0
 16 17  2  0  0  0  0
 18 30  1  0  0  0  0
 18 19  2  0  0  0  0
 19 31  1  0  0  0  0
 21  1  1  0  0  0  0
 22  1  1  0  0  0  0
 25  5  1  0  0  0  0
 26  6  1  0  0  0  0
 28 11  1  0  0  0  0
 29 14  1  0  0  0  0
M  END
