000-750-690.xyz
 OpenBabel07262113353D
Fc1ccc(cc1)n1c(S)nc(c(c1=O)C1NCCc2c1[nH]c1c2cccc1)O
 46 50  0  0  1  0  0  0  0  0999 V2000
    2.1842    0.0354    4.4638 O   0  0  0  0  0  0  0  0  0  0  0  0
    0.9971   -0.0239    3.8351 C   0  0  0  0  0  0  0  0  0  0  0  0
    1.0941   -0.0000    2.4788 N   0  0  0  0  0  0  0  0  0  0  0  0
    0.0000    0.0000    1.7700 C   0  0  0  0  0  0  0  0  0  0  0  0
    0.0000    0.0000    0.0000 S   0  0  0  0  0  0  0  0  0  0  0  0
   -1.2378    0.0081    2.3464 N   0  0  0  0  0  0  0  0  0  0  0  0
   -2.4269    0.0683    1.5391 C   0  0  0  0  0  0  0  0  0  0  0  0
   -2.9485    1.3108    1.1676 C   0  0  0  0  0  0  0  0  0  0  0  0
   -4.1013    1.3736    0.3877 C   0  0  0  0  0  0  0  0  0  0  0  0
   -4.7161    0.1838    0.0003 C   0  0  0  0  0  0  0  0  0  0  0  0
   -5.8217    0.2397   -0.7491 F   0  0  0  0  0  0  0  0  0  0  0  0
   -4.2133   -1.0621    0.3718 C   0  0  0  0  0  0  0  0  0  0  0  0
   -3.0598   -1.1158    1.1518 C   0  0  0  0  0  0  0  0  0  0  0  0
   -1.4056    0.0062    3.7692 C   0  0  0  0  0  0  0  0  0  0  0  0
   -2.5387    0.1162    4.2237 O   0  0  0  0  0  0  0  0  0  0  0  0
   -0.1897   -0.1019    4.5350 C   0  0  2  0  0  0  0  0  0  0  0  0
   -0.3629   -0.1722    6.0458 C   0  0  1  0  0  0  0  0  0  0  0  0
    0.7479   -0.8423    6.7250 N   0  0  0  0  0  0  0  0  0  0  0  0
    0.8233   -0.5674    8.1564 C   0  0  0  0  0  0  0  0  0  0  0  0
    1.0295    0.9244    8.4923 C   0  0  0  0  0  0  0  0  0  0  0  0
    0.0066    1.7169    7.7357 C   0  0  0  0  0  0  0  0  0  0  0  0
   -0.6338    1.1911    6.6367 C   0  0  0  0  0  0  0  0  0  0  0  0
   -1.6017    2.0669    6.1848 N   0  0  0  0  0  0  0  0  0  0  0  0
   -1.6075    3.1847    6.9935 C   0  0  0  0  0  0  0  0  0  0  0  0
   -2.4060    4.3333    6.9544 C   0  0  0  0  0  0  0  0  0  0  0  0
   -2.1793    5.3165    7.9166 C   0  0  0  0  0  0  0  0  0  0  0  0
   -1.1781    5.1609    8.8982 C   0  0  0  0  0  0  0  0  0  0  0  0
   -0.3841    4.0172    8.9392 C   0  0  0  0  0  0  0  0  0  0  0  0
   -0.5893    3.0061    7.9840 C   0  0  0  0  0  0  0  0  0  0  0  0
    2.8649    0.0537    3.7723 H   0  0  0  0  0  0  0  0  0  0  0  0
    2.2763   -0.0117   -0.3997 Au  0  0  0  0  0  0  0  0  0  0  0  0
   -2.4457    2.2238    1.4902 H   0  0  0  0  0  0  0  0  0  0  0  0
   -4.5327    2.3265    0.0782 H   0  0  0  0  0  0  0  0  0  0  0  0
   -4.7302   -1.9674    0.0503 H   0  0  0  0  0  0  0  0  0  0  0  0
   -2.6434   -2.0750    1.4628 H   0  0  0  0  0  0  0  0  0  0  0  0
   -1.2783   -0.7769    6.1973 H   0  0  0  0  0  0  0  0  0  0  0  0
    1.6263   -0.5737    6.2906 H   0  0  0  0  0  0  0  0  0  0  0  0
   -0.1133   -0.9125    8.6285 H   0  0  0  0  0  0  0  0  0  0  0  0
    1.6383   -1.1774    8.5786 H   0  0  0  0  0  0  0  0  0  0  0  0
    2.0612    1.2267    8.2279 H   0  0  0  0  0  0  0  0  0  0  0  0
    0.9293    1.0902    9.5792 H   0  0  0  0  0  0  0  0  0  0  0  0
   -2.2907    1.8090    5.4851 H   0  0  0  0  0  0  0  0  0  0  0  0
   -3.1832    4.4543    6.1958 H   0  0  0  0  0  0  0  0  0  0  0  0
   -2.7890    6.2234    7.9104 H   0  0  0  0  0  0  0  0  0  0  0  0
   -1.0267    5.9520    9.6368 H   0  0  0  0  0  0  0  0  0  0  0  0
    0.3887    3.9051    9.7041 H   0  0  0  0  0  0  0  0  0  0  0  0
  2  1  1  0  0  0  0
  2 16  1  0  0  0  0
  3  2  2  0  0  0  0
  4  6  1  0  0  0  0
  4  3  2  0  0  0  0
  5  4  1  0  0  0  0
  6 14  1  0  0  0  0
  7  6  1  0  0  0  0
  8 32  1  0  0  0  0
  8  7  1  0  0  0  0
  9  8  2  0  0  0  0
 10 12  2  0  0  0  0
 10  9  1  0  0  0  0
 11 10  1  0  0  0  0
 12 13  1  0  0  0  0
 13 35  1  0  0  0  0
 13  7  2  0  0  0  0
 14 15  2  0  0  0  0
 16 14  1  1  0  0  0
 16 17  1  0  0  0  0
 17 36  1  1  0  0  0
 17 22  1  0  0  0  0
 17 18  1  0  0  0  0
 18 19  1  0  0  0  0
 19 20  1  0  0  0  0
 19 39  1  0  0  0  0
 19 38  1  0  0  0  0
 20 41  1  0  0  0  0
 21 29  1  0  0  0  0
 21 20  1  0  0  0  0
 22 21  2  0  0  0  0
 23 22  1  0  0  0  0
 23 24  1  0  0  0  0
 24 29  1  0  0  0  0
 25 24  2  0  0  0  0
 25 26  1  0  0  0  0
 26 27  2  0  0  0  0
 27 28  1  0  0  0  0
 27 45  1  0  0  0  0
 28 46  1  0  0  0  0
 29 28  2  0  0  0  0
 30  1  1  0  0  0  0
 31  5  1  0  0  0  0
 33  9  1  0  0  0  0
 34 12  1  0  0  0  0
 37 18  1  0  0  0  0
 40 20  1  0  0  0  0
 42 23  1  0  0  0  0
 43 25  1  0  0  0  0
 44 26  1  0  0  0  0
M  RAD  1  16   2
M  END
