000-779-953.xyz
 OpenBabel07262113363D
SC1=NC(=O)/C(=C\c2ccc(o2)c2ccc(cc2C(=O)O)Br)/C(=N1)O
 34 36  0  0  0  0  0  0  0  0999 V2000
   -1.8582    2.1359   10.7077 O   0  0  0  0  0  0  0  0  0  0  0  0
   -1.7700    1.2745   11.7360 C   0  0  0  0  0  0  0  0  0  0  0  0
   -2.5727    1.2512   12.6372 O   0  0  0  0  0  0  0  0  0  0  0  0
   -0.5369    0.4220   11.6958 C   0  0  0  0  0  0  0  0  0  0  0  0
    0.0070    0.1380   12.9555 C   0  0  0  0  0  0  0  0  0  0  0  0
    1.2197   -0.5386   13.0661 C   0  0  0  0  0  0  0  0  0  0  0  0
    1.9476   -0.8932   14.7832 Br  0  0  0  0  0  0  0  0  0  0  0  0
    1.9064   -0.9498   11.9201 C   0  0  0  0  0  0  0  0  0  0  0  0
    1.3469   -0.7075   10.6704 C   0  0  0  0  0  0  0  0  0  0  0  0
    0.1139   -0.0396   10.5238 C   0  0  0  0  0  0  0  0  0  0  0  0
   -0.4464    0.0519    9.1781 C   0  0  0  0  0  0  0  0  0  0  0  0
   -1.7401    0.0399    8.6748 C   0  0  0  0  0  0  0  0  0  0  0  0
   -1.6361    0.0196    7.2713 C   0  0  0  0  0  0  0  0  0  0  0  0
   -0.2748    0.0181    6.9645 C   0  0  0  0  0  0  0  0  0  0  0  0
    0.5539    0.0126    5.8178 C   0  0  0  0  0  0  0  0  0  0  0  0
    0.2891    0.0044    4.4644 C   0  0  0  0  0  0  0  0  0  0  0  0
    1.4105    0.0022    3.5429 C   0  0  0  0  0  0  0  0  0  0  0  0
    2.6440    0.0024    4.0565 O   0  0  0  0  0  0  0  0  0  0  0  0
    1.2856   -0.0000    2.2496 N   0  0  0  0  0  0  0  0  0  0  0  0
   -0.0000   -0.0000    1.7618 C   0  0  0  0  0  0  0  0  0  0  0  0
    0.0000    0.0000    0.0000 S   0  0  0  0  0  0  0  0  0  0  0  0
   -1.1110   -0.0003    2.4432 N   0  0  0  0  0  0  0  0  0  0  0  0
   -1.0631   -0.0009    3.8279 C   0  0  0  0  0  0  0  0  0  0  0  0
   -2.0909   -0.0055    4.4925 O   0  0  0  0  0  0  0  0  0  0  0  0
    0.4310    0.0306    8.1555 O   0  0  0  0  0  0  0  0  0  0  0  0
   -2.6698    2.6551   10.8441 H   0  0  0  0  0  0  0  0  0  0  0  0
   -0.5265    0.4799   13.8422 H   0  0  0  0  0  0  0  0  0  0  0  0
    2.8603   -1.4716   12.0069 H   0  0  0  0  0  0  0  0  0  0  0  0
    1.8579   -1.0631    9.7754 H   0  0  0  0  0  0  0  0  0  0  0  0
   -2.6551    0.0282    9.2590 H   0  0  0  0  0  0  0  0  0  0  0  0
   -2.4190    0.0016    6.5216 H   0  0  0  0  0  0  0  0  0  0  0  0
    1.6146    0.0174    6.0834 H   0  0  0  0  0  0  0  0  0  0  0  0
    3.2534    0.0024    3.2981 H   0  0  0  0  0  0  0  0  0  0  0  0
   -2.2839   -0.0015   -0.3501 Au  0  0  0  0  0  0  0  0  0  0  0  0
  1 26  1  0  0  0  0
  1  2  1  0  0  0  0
  2  3  2  0  0  0  0
  4  2  1  0  0  0  0
  4  5  2  0  0  0  0
  5  6  1  0  0  0  0
  5 27  1  0  0  0  0
  6  7  1  0  0  0  0
  8 28  1  0  0  0  0
  8  6  2  0  0  0  0
  9  8  1  0  0  0  0
 10  9  2  0  0  0  0
 10  4  1  0  0  0  0
 11 10  1  0  0  0  0
 12 11  2  0  0  0  0
 12 30  1  0  0  0  0
 13 12  1  0  0  0  0
 14 13  2  0  0  0  0
 14 25  1  0  0  0  0
 15 32  1  0  0  0  0
 15 14  1  0  0  0  0
 16 15  2  0  0  0  0
 17 18  1  0  0  0  0
 17 16  1  0  0  0  0
 19 17  2  0  0  0  0
 20 19  2  0  0  0  0
 20 22  2  0  0  0  0
 21 20  1  0  0  0  0
 22 23  2  0  0  0  0
 23 16  1  0  0  0  0
 23 24  2  0  0  0  0
 25 11  1  0  0  0  0
 29  9  1  0  0  0  0
 31 13  1  0  0  0  0
 33 18  1  0  0  0  0
 34 21  1  0  0  0  0
M  END
