000-720-099.xyz
 OpenBabel07262113333D
Cc1cccc(c1)N1C(=NC(=O)/C(=C\c2ccc(s2)[N+](=O)[O-])/C1=O)S
 36 38  0  0  0  0  0  0  0  0999 V2000
   -4.7354    2.5488   -0.1574 C   0  0  0  0  0  0  0  0  0  0  0  0
   -4.1450    1.2344    0.2845 C   0  0  0  0  0  0  0  0  0  0  0  0
   -4.7055    0.0095   -0.1047 C   0  0  0  0  0  0  0  0  0  0  0  0
   -4.1488   -1.2057    0.3050 C   0  0  0  0  0  0  0  0  0  0  0  0
   -3.0137   -1.2206    1.1131 C   0  0  0  0  0  0  0  0  0  0  0  0
   -2.4459   -0.0035    1.4979 C   0  0  0  0  0  0  0  0  0  0  0  0
   -3.0043    1.2099    1.0987 C   0  0  0  0  0  0  0  0  0  0  0  0
   -1.2661    0.0004    2.3280 N   0  0  0  0  0  0  0  0  0  0  0  0
   -0.0000    0.0000    1.7665 C   0  0  0  0  0  0  0  0  0  0  0  0
    0.0000    0.0000    0.0000 S   0  0  0  0  0  0  0  0  0  0  0  0
    1.1064   -0.0000    2.4385 N   0  0  0  0  0  0  0  0  0  0  0  0
    1.1228    0.0006    3.8258 C   0  0  0  0  0  0  0  0  0  0  0  0
    2.1902   -0.0030    4.4187 O   0  0  0  0  0  0  0  0  0  0  0  0
   -0.1910    0.0066    4.5309 C   0  0  0  0  0  0  0  0  0  0  0  0
   -0.4059    0.0126    5.8838 C   0  0  0  0  0  0  0  0  0  0  0  0
    0.4410    0.0153    7.0439 C   0  0  0  0  0  0  0  0  0  0  0  0
    1.8259    0.0105    7.2336 C   0  0  0  0  0  0  0  0  0  0  0  0
    2.1959    0.0163    8.5933 C   0  0  0  0  0  0  0  0  0  0  0  0
    1.0922    0.0254    9.4222 C   0  0  0  0  0  0  0  0  0  0  0  0
   -0.4088    0.0270    8.5853 S   0  0  0  0  0  0  0  0  0  0  0  0
    1.1136    0.0333   10.8669 N   0  0  0  0  0  0  0  0  0  0  0  0
    0.0287    0.0411   11.4329 O   0  0  0  0  0  0  0  0  0  0  0  0
    2.2068    0.0318   11.4095 O   0  0  0  0  0  0  0  0  0  0  0  0
   -1.4473    0.0065    3.7253 C   0  0  0  0  0  0  0  0  0  0  0  0
   -2.5679    0.0114    4.1910 O   0  0  0  0  0  0  0  0  0  0  0  0
   -5.6735    2.4035   -0.7118 H   0  0  0  0  0  0  0  0  0  0  0  0
   -4.9468    3.2004    0.7056 H   0  0  0  0  0  0  0  0  0  0  0  0
   -4.0370    3.0954   -0.8129 H   0  0  0  0  0  0  0  0  0  0  0  0
   -5.5961    0.0077   -0.7383 H   0  0  0  0  0  0  0  0  0  0  0  0
   -4.6055   -2.1472   -0.0077 H   0  0  0  0  0  0  0  0  0  0  0  0
   -2.5627   -2.1574    1.4436 H   0  0  0  0  0  0  0  0  0  0  0  0
   -2.5371    2.1418    1.4244 H   0  0  0  0  0  0  0  0  0  0  0  0
    2.3060   -0.0059   -0.2746 Au  0  0  0  0  0  0  0  0  0  0  0  0
   -1.4769    0.0166    6.1206 H   0  0  0  0  0  0  0  0  0  0  0  0
    2.5059    0.0029    6.3858 H   0  0  0  0  0  0  0  0  0  0  0  0
    3.2144    0.0141    8.9782 H   0  0  0  0  0  0  0  0  0  0  0  0
  1  2  1  0  0  0  0
  1 27  1  0  0  0  0
  2  7  1  0  0  0  0
  3  2  2  0  0  0  0
  3  4  1  0  0  0  0
  4  5  2  0  0  0  0
  5 31  1  0  0  0  0
  5  6  1  0  0  0  0
  6  8  1  0  0  0  0
  7 32  1  0  0  0  0
  7  6  2  0  0  0  0
  8 24  1  0  0  0  0
  9  8  1  0  0  0  0
  9 11  2  0  0  0  0
 10  9  1  0  0  0  0
 11 12  2  0  0  0  0
 12 13  2  0  0  0  0
 12 14  1  0  0  0  0
 14 15  2  0  0  0  0
 15 34  1  0  0  0  0
 15 16  1  0  0  0  0
 16 17  2  0  0  0  0
 16 20  1  0  0  0  0
 17 18  1  0  0  0  0
 18 36  1  0  0  0  0
 18 19  2  0  0  0  0
 19 21  1  0  0  0  0
 20 19  1  0  0  0  0
 21 23  2  0  0  0  0
 21 22  2  0  0  0  0
 24 25  2  0  0  0  0
 24 14  1  0  0  0  0
 26  1  1  0  0  0  0
 28  1  1  0  0  0  0
 29  3  1  0  0  0  0
 30  4  1  0  0  0  0
 33 10  1  0  0  0  0
 35 17  1  0  0  0  0
M  END
