000-752-142.xyz
 OpenBabel07262113353D
SC1=NC(=O)/C(=C/C=C/2\C=C(OC(O2)(C)C)c2ccccc2)/C(=N1)O
 41 43  0  0  0  0  0  0  0  0999 V2000
   -2.4614   -1.9080   10.1702 C   0  0  0  0  0  0  0  0  0  0  0  0
   -2.5199   -0.3846   10.1291 C   0  0  0  0  0  0  0  0  0  0  0  0
   -3.7553    0.1935   10.7843 C   0  0  0  0  0  0  0  0  0  0  0  0
   -2.5255    0.0727    8.7776 O   0  0  0  0  0  0  0  0  0  0  0  0
   -1.3669   -0.0120    8.0782 C   0  0  0  0  0  0  0  0  0  0  0  0
   -1.4855    0.0002    6.7001 C   0  0  0  0  0  0  0  0  0  0  0  0
   -0.3686    0.0030    5.8398 C   0  0  0  0  0  0  0  0  0  0  0  0
   -0.3075    0.0008    4.4596 C   0  0  0  0  0  0  0  0  0  0  0  0
   -1.4196   -0.0002    3.5462 C   0  0  0  0  0  0  0  0  0  0  0  0
   -2.6655   -0.0016    4.0362 O   0  0  0  0  0  0  0  0  0  0  0  0
   -1.2859   -0.0005    2.2497 N   0  0  0  0  0  0  0  0  0  0  0  0
   -0.0000   -0.0000    1.7668 C   0  0  0  0  0  0  0  0  0  0  0  0
    0.0000    0.0000    0.0000 S   0  0  0  0  0  0  0  0  0  0  0  0
    1.1135   -0.0000    2.4433 N   0  0  0  0  0  0  0  0  0  0  0  0
    1.0574    0.0003    3.8313 C   0  0  0  0  0  0  0  0  0  0  0  0
    2.0702    0.0006    4.5156 O   0  0  0  0  0  0  0  0  0  0  0  0
   -0.1549   -0.0372    8.8405 C   0  0  0  0  0  0  0  0  0  0  0  0
   -0.2005    0.1189   10.1959 C   0  0  0  0  0  0  0  0  0  0  0  0
   -1.3942    0.1617   10.8301 O   0  0  0  0  0  0  0  0  0  0  0  0
    0.9561    0.2625   11.0878 C   0  0  0  0  0  0  0  0  0  0  0  0
    0.7820    0.1660   12.4812 C   0  0  0  0  0  0  0  0  0  0  0  0
    1.8737    0.2895   13.3397 C   0  0  0  0  0  0  0  0  0  0  0  0
    3.1529    0.5127   12.8232 C   0  0  0  0  0  0  0  0  0  0  0  0
    3.3352    0.6171   11.4394 C   0  0  0  0  0  0  0  0  0  0  0  0
    2.2480    0.4978   10.5780 C   0  0  0  0  0  0  0  0  0  0  0  0
   -3.3206   -2.3220    9.6242 H   0  0  0  0  0  0  0  0  0  0  0  0
   -1.5396   -2.2836    9.7055 H   0  0  0  0  0  0  0  0  0  0  0  0
   -2.4971   -2.2536   11.2128 H   0  0  0  0  0  0  0  0  0  0  0  0
   -3.7909   -0.1009   11.8420 H   0  0  0  0  0  0  0  0  0  0  0  0
   -3.7249    1.2892   10.7137 H   0  0  0  0  0  0  0  0  0  0  0  0
   -4.6547   -0.1760   10.2735 H   0  0  0  0  0  0  0  0  0  0  0  0
   -2.4952    0.0183    6.2944 H   0  0  0  0  0  0  0  0  0  0  0  0
    0.6318    0.0037    6.2855 H   0  0  0  0  0  0  0  0  0  0  0  0
   -3.2521    0.0001    3.2589 H   0  0  0  0  0  0  0  0  0  0  0  0
    2.2858    0.0015   -0.3370 Au  0  0  0  0  0  0  0  0  0  0  0  0
    0.7977   -0.1183    8.3275 H   0  0  0  0  0  0  0  0  0  0  0  0
   -0.2170   -0.0106   12.8792 H   0  0  0  0  0  0  0  0  0  0  0  0
    1.7253    0.2097   14.4190 H   0  0  0  0  0  0  0  0  0  0  0  0
    4.0076    0.6098   13.4966 H   0  0  0  0  0  0  0  0  0  0  0  0
    4.3308    0.8005   11.0297 H   0  0  0  0  0  0  0  0  0  0  0  0
    2.4041    0.6034    9.5035 H   0  0  0  0  0  0  0  0  0  0  0  0
  1 28  1  0  0  0  0
  2  1  1  0  0  0  0
  2  3  1  0  0  0  0
  2 19  1  0  0  0  0
  3 29  1  0  0  0  0
  4  2  1  0  0  0  0
  5  4  1  0  0  0  0
  5 17  1  0  0  0  0
  6  5  2  0  0  0  0
  7 33  1  0  0  0  0
  7  6  1  0  0  0  0
  8  7  2  0  0  0  0
  9 10  1  0  0  0  0
  9  8  1  0  0  0  0
 11  9  2  0  0  0  0
 12 11  2  0  0  0  0
 12 14  2  0  0  0  0
 13 12  1  0  0  0  0
 14 15  2  0  0  0  0
 15  8  1  0  0  0  0
 15 16  2  0  0  0  0
 17 18  2  0  0  0  0
 18 19  1  0  0  0  0
 18 20  1  0  0  0  0
 20 21  1  0  0  0  0
 21 37  1  0  0  0  0
 21 22  2  0  0  0  0
 22 38  1  0  0  0  0
 23 22  1  0  0  0  0
 23 39  1  0  0  0  0
 24 23  2  0  0  0  0
 25 20  2  0  0  0  0
 25 24  1  0  0  0  0
 26  1  1  0  0  0  0
 27  1  1  0  0  0  0
 30  3  1  0  0  0  0
 31  3  1  0  0  0  0
 32  6  1  0  0  0  0
 34 10  1  0  0  0  0
 35 13  1  0  0  0  0
 36 17  1  0  0  0  0
 40 24  1  0  0  0  0
 41 25  1  0  0  0  0
M  END
