000-811-575.xyz
 OpenBabel07262113363D
Cc1ccc(c(c1)NC(=O)C1=C(C)N=C(NC1c1cccc2c1cccc2)S)C
 52 55  0  0  1  0  0  0  0  0999 V2000
    2.3443   -0.0487    4.5407 C   0  0  0  0  0  0  0  0  0  0  0  0
    1.0103    0.0229    3.8526 C   0  0  0  0  0  0  0  0  0  0  0  0
   -0.1757    0.1116    4.4999 C   0  0  2  0  0  0  0  0  0  0  0  0
   -1.4951    0.1581    3.7556 C   0  0  2  0  0  0  0  0  0  0  0  0
   -1.2408    0.0127    2.3214 N   0  0  0  0  0  0  0  0  0  0  0  0
    0.0000    0.0000    1.7752 C   0  0  0  0  0  0  0  0  0  0  0  0
    0.0000    0.0000    0.0000 S   0  0  0  0  0  0  0  0  0  0  0  0
    1.1066    0.0000    2.4575 N   0  0  0  0  0  0  0  0  0  0  0  0
   -2.2896    1.4137    4.1155 C   0  0  0  0  0  0  0  0  0  0  0  0
   -3.4915    1.2455    4.7761 C   0  0  0  0  0  0  0  0  0  0  0  0
   -4.2472    2.3460    5.2447 C   0  0  0  0  0  0  0  0  0  0  0  0
   -3.7802    3.6253    5.0564 C   0  0  0  0  0  0  0  0  0  0  0  0
   -2.5467    3.8555    4.3865 C   0  0  0  0  0  0  0  0  0  0  0  0
   -2.0518    5.1767    4.2070 C   0  0  0  0  0  0  0  0  0  0  0  0
   -0.8524    5.4066    3.5696 C   0  0  0  0  0  0  0  0  0  0  0  0
   -0.1002    4.3135    3.0787 C   0  0  0  0  0  0  0  0  0  0  0  0
   -0.5515    3.0183    3.2335 C   0  0  0  0  0  0  0  0  0  0  0  0
   -1.7834    2.7401    3.8954 C   0  0  0  0  0  0  0  0  0  0  0  0
   -0.3619    0.1943    5.9845 C   0  0  0  0  0  0  0  0  0  0  0  0
   -1.0026   -0.6400    6.6038 O   0  0  0  0  0  0  0  0  0  0  0  0
    0.1701    1.3398    6.5295 N   0  0  0  0  0  0  0  0  0  0  0  0
    0.0474    1.8435    7.8370 C   0  0  0  0  0  0  0  0  0  0  0  0
   -0.3928    1.0483    8.9028 C   0  0  0  0  0  0  0  0  0  0  0  0
   -0.5004    1.5770   10.1968 C   0  0  0  0  0  0  0  0  0  0  0  0
   -0.9820    0.6996   11.3250 C   0  0  0  0  0  0  0  0  0  0  0  0
   -0.1575    2.9167   10.4069 C   0  0  0  0  0  0  0  0  0  0  0  0
    0.2768    3.7095    9.3412 C   0  0  0  0  0  0  0  0  0  0  0  0
    0.3857    3.2035    8.0446 C   0  0  0  0  0  0  0  0  0  0  0  0
    0.8272    4.0772    6.8981 C   0  0  0  0  0  0  0  0  0  0  0  0
    2.9587    0.8220    4.2560 H   0  0  0  0  0  0  0  0  0  0  0  0
    2.2621   -0.0867    5.6337 H   0  0  0  0  0  0  0  0  0  0  0  0
    2.8844   -0.9423    4.1894 H   0  0  0  0  0  0  0  0  0  0  0  0
   -2.1071   -0.6967    4.0953 H   0  0  0  0  0  0  0  0  0  0  0  0
   -2.0445    0.0308    1.7057 H   0  0  0  0  0  0  0  0  0  0  0  0
    2.3018   -0.0643   -0.2605 Au  0  0  0  0  0  0  0  0  0  0  0  0
   -3.8521    0.2311    4.9640 H   0  0  0  0  0  0  0  0  0  0  0  0
   -5.1908    2.1710    5.7661 H   0  0  0  0  0  0  0  0  0  0  0  0
   -4.3452    4.4854    5.4242 H   0  0  0  0  0  0  0  0  0  0  0  0
   -2.6452    6.0109    4.5898 H   0  0  0  0  0  0  0  0  0  0  0  0
   -0.4819    6.4262    3.4409 H   0  0  0  0  0  0  0  0  0  0  0  0
    0.8483    4.4935    2.5673 H   0  0  0  0  0  0  0  0  0  0  0  0
    0.0590    2.2108    2.8404 H   0  0  0  0  0  0  0  0  0  0  0  0
    0.5581    1.9775    5.8459 H   0  0  0  0  0  0  0  0  0  0  0  0
   -0.6648    0.0141    8.7033 H   0  0  0  0  0  0  0  0  0  0  0  0
   -0.9946    1.2416   12.2820 H   0  0  0  0  0  0  0  0  0  0  0  0
   -2.0020    0.3281   11.1316 H   0  0  0  0  0  0  0  0  0  0  0  0
   -0.3371   -0.1865   11.4446 H   0  0  0  0  0  0  0  0  0  0  0  0
   -0.2328    3.3474   11.4086 H   0  0  0  0  0  0  0  0  0  0  0  0
    0.5347    4.7571    9.5192 H   0  0  0  0  0  0  0  0  0  0  0  0
    1.0374    5.0988    7.2438 H   0  0  0  0  0  0  0  0  0  0  0  0
    0.0574    4.1478    6.1112 H   0  0  0  0  0  0  0  0  0  0  0  0
    1.7489    3.7020    6.4173 H   0  0  0  0  0  0  0  0  0  0  0  0
  1 31  1  0  0  0  0
  2  3  1  0  0  0  0
  2  1  1  0  0  0  0
  3  4  1  6  0  0  0
  3 19  1  0  0  0  0
  4 33  1  1  0  0  0
  4  9  1  0  0  0  0
  5  4  1  0  0  0  0
  6  5  1  0  0  0  0
  6  8  2  0  0  0  0
  7  6  1  0  0  0  0
  8  2  2  0  0  0  0
  9 10  1  0  0  0  0
 10 36  1  0  0  0  0
 10 11  2  0  0  0  0
 11 37  1  0  0  0  0
 12 11  1  0  0  0  0
 12 38  1  0  0  0  0
 13 12  2  0  0  0  0
 14 13  1  0  0  0  0
 14 39  1  0  0  0  0
 15 14  2  0  0  0  0
 16 17  2  0  0  0  0
 16 15  1  0  0  0  0
 17 18  1  0  0  0  0
 18  9  2  0  0  0  0
 18 13  1  0  0  0  0
 19 21  1  0  0  0  0
 19 20  2  0  0  0  0
 21 22  1  0  0  0  0
 22 28  2  0  0  0  0
 22 23  1  0  0  0  0
 23 24  2  0  0  0  0
 24 26  1  0  0  0  0
 24 25  1  0  0  0  0
 25 47  1  0  0  0  0
 25 45  1  0  0  0  0
 26 48  1  0  0  0  0
 27 49  1  0  0  0  0
 27 26  2  0  0  0  0
 28 27  1  0  0  0  0
 29 50  1  0  0  0  0
 29 28  1  0  0  0  0
 30  1  1  0  0  0  0
 32  1  1  0  0  0  0
 34  5  1  0  0  0  0
 35  7  1  0  0  0  0
 40 15  1  0  0  0  0
 41 16  1  0  0  0  0
 42 17  1  0  0  0  0
 43 21  1  0  0  0  0
 44 23  1  0  0  0  0
 46 25  1  0  0  0  0
 51 29  1  0  0  0  0
 52 29  1  0  0  0  0
M  RAD  1   3   2
M  END
