000-791-266.xyz
 OpenBabel07262113363D
SC1=NC(=O)/C(=C/2\c3cc(cc4c3N(C2=O)C(C)(C)C=C4C)OC(=O)c2cccc3c2cccc3)/N1
 57 62  0  0  0  0  0  0  0  0999 V2000
    4.7010   -0.0258   10.1297 C   0  0  0  0  0  0  0  0  0  0  0  0
    4.3709   -0.0282    8.6638 C   0  0  0  0  0  0  0  0  0  0  0  0
    5.3236   -0.0292    7.7095 C   0  0  0  0  0  0  0  0  0  0  0  0
    5.1253   -0.0260    6.2019 C   0  0  0  0  0  0  0  0  0  0  0  0
    5.7596   -1.2945    5.5992 C   0  0  0  0  0  0  0  0  0  0  0  0
    5.7738    1.2376    5.6039 C   0  0  0  0  0  0  0  0  0  0  0  0
    3.6777   -0.0172    5.9019 N   0  0  0  0  0  0  0  0  0  0  0  0
    3.0825   -0.0103    4.6569 C   0  0  0  0  0  0  0  0  0  0  0  0
    3.6555   -0.0107    3.5680 O   0  0  0  0  0  0  0  0  0  0  0  0
    1.5955   -0.0039    4.8975 C   0  0  0  0  0  0  0  0  0  0  0  0
    0.7367   -0.0004    3.8427 C   0  0  0  0  0  0  0  0  0  0  0  0
    1.1354   -0.0000    2.5270 N   0  0  0  0  0  0  0  0  0  0  0  0
    0.0000   -0.0000    1.7441 C   0  0  0  0  0  0  0  0  0  0  0  0
    0.0000    0.0000    0.0000 S   0  0  0  0  0  0  0  0  0  0  0  0
   -1.1227   -0.0002    2.4062 N   0  0  0  0  0  0  0  0  0  0  0  0
   -0.7867   -0.0003    3.7670 C   0  0  0  0  0  0  0  0  0  0  0  0
   -1.5495   -0.0012    4.7068 O   0  0  0  0  0  0  0  0  0  0  0  0
    1.4029   -0.0051    6.3400 C   0  0  0  0  0  0  0  0  0  0  0  0
    0.2982    0.0058    7.2012 C   0  0  0  0  0  0  0  0  0  0  0  0
    0.5441   -0.0021    8.5775 C   0  0  0  0  0  0  0  0  0  0  0  0
   -0.5786   -0.0552    9.3914 O   0  0  0  0  0  0  0  0  0  0  0  0
   -0.7285    0.7904   10.4532 C   0  0  0  0  0  0  0  0  0  0  0  0
    0.1295    1.5778   10.7733 O   0  0  0  0  0  0  0  0  0  0  0  0
   -2.0504    0.5898   11.1160 C   0  0  0  0  0  0  0  0  0  0  0  0
   -2.9613   -0.2840   10.5337 C   0  0  0  0  0  0  0  0  0  0  0  0
   -4.2304   -0.5158   11.1012 C   0  0  0  0  0  0  0  0  0  0  0  0
   -4.5887    0.1291   12.2636 C   0  0  0  0  0  0  0  0  0  0  0  0
   -3.6969    1.0309   12.9026 C   0  0  0  0  0  0  0  0  0  0  0  0
   -4.0786    1.6891   14.1042 C   0  0  0  0  0  0  0  0  0  0  0  0
   -3.2242    2.5658   14.7336 C   0  0  0  0  0  0  0  0  0  0  0  0
   -1.9482    2.8165   14.1770 C   0  0  0  0  0  0  0  0  0  0  0  0
   -1.5441    2.1969   13.0118 C   0  0  0  0  0  0  0  0  0  0  0  0
   -2.3996    1.2824   12.3324 C   0  0  0  0  0  0  0  0  0  0  0  0
    1.8400   -0.0219    9.1143 C   0  0  0  0  0  0  0  0  0  0  0  0
    2.9545   -0.0225    8.2592 C   0  0  0  0  0  0  0  0  0  0  0  0
    2.6945   -0.0151    6.8939 C   0  0  0  0  0  0  0  0  0  0  0  0
    4.2765   -0.9111   10.6322 H   0  0  0  0  0  0  0  0  0  0  0  0
    5.7870   -0.0236   10.2976 H   0  0  0  0  0  0  0  0  0  0  0  0
    4.2712    0.8587   10.6288 H   0  0  0  0  0  0  0  0  0  0  0  0
    6.3756   -0.0307    8.0093 H   0  0  0  0  0  0  0  0  0  0  0  0
    5.6303   -1.3028    4.5081 H   0  0  0  0  0  0  0  0  0  0  0  0
    6.8356   -1.3241    5.8291 H   0  0  0  0  0  0  0  0  0  0  0  0
    5.2893   -2.1938    6.0237 H   0  0  0  0  0  0  0  0  0  0  0  0
    6.8501    1.2538    5.8334 H   0  0  0  0  0  0  0  0  0  0  0  0
    5.6441    1.2517    4.5129 H   0  0  0  0  0  0  0  0  0  0  0  0
    5.3140    2.1403    6.0323 H   0  0  0  0  0  0  0  0  0  0  0  0
    2.1215   -0.0020    2.2649 H   0  0  0  0  0  0  0  0  0  0  0  0
    2.2377    0.0052   -0.5570 Au  0  0  0  0  0  0  0  0  0  0  0  0
   -0.7184    0.0177    6.8114 H   0  0  0  0  0  0  0  0  0  0  0  0
   -2.6834   -0.7957    9.6139 H   0  0  0  0  0  0  0  0  0  0  0  0
   -4.9214   -1.2058   10.6124 H   0  0  0  0  0  0  0  0  0  0  0  0
   -5.5698   -0.0423   12.7142 H   0  0  0  0  0  0  0  0  0  0  0  0
   -5.0688    1.4825   14.5182 H   0  0  0  0  0  0  0  0  0  0  0  0
   -3.5269    3.0666   15.6562 H   0  0  0  0  0  0  0  0  0  0  0  0
   -1.2701    3.5136   14.6754 H   0  0  0  0  0  0  0  0  0  0  0  0
   -0.5640    2.4035   12.5914 H   0  0  0  0  0  0  0  0  0  0  0  0
    1.9721   -0.0223   10.1936 H   0  0  0  0  0  0  0  0  0  0  0  0
  1 38  1  0  0  0  0
  1 39  1  0  0  0  0
  1 37  1  0  0  0  0
  2  1  1  0  0  0  0
  3 40  1  0  0  0  0
  3  2  2  0  0  0  0
  4  3  1  0  0  0  0
  5 42  1  0  0  0  0
  5 43  1  0  0  0  0
  5  4  1  0  0  0  0
  6 44  1  0  0  0  0
  6 46  1  0  0  0  0
  6  4  1  0  0  0  0
  7  4  1  0  0  0  0
  7 36  1  0  0  0  0
  8 10  1  0  0  0  0
  8  7  1  0  0  0  0
  9  8  2  0  0  0  0
 10 18  1  0  0  0  0
 11 10  2  0  0  0  0
 12 11  1  0  0  0  0
 13 15  2  0  0  0  0
 13 12  1  0  0  0  0
 14 13  1  0  0  0  0
 15 16  2  0  0  0  0
 16 11  1  0  0  0  0
 16 17  2  0  0  0  0
 18 36  2  0  0  0  0
 18 19  1  0  0  0  0
 19 20  2  0  0  0  0
 20 34  1  0  0  0  0
 20 21  1  0  0  0  0
 21 22  1  0  0  0  0
 22 23  2  0  0  0  0
 22 24  1  0  0  0  0
 24 33  2  0  0  0  0
 25 26  2  0  0  0  0
 25 24  1  0  0  0  0
 26 27  1  0  0  0  0
 27 52  1  0  0  0  0
 27 28  2  0  0  0  0
 28 29  1  0  0  0  0
 29 53  1  0  0  0  0
 29 30  2  0  0  0  0
 30 54  1  0  0  0  0
 31 55  1  0  0  0  0
 31 30  1  0  0  0  0
 32 31  2  0  0  0  0
 33 28  1  0  0  0  0
 33 32  1  0  0  0  0
 34 57  1  0  0  0  0
 35  2  1  0  0  0  0
 35 34  2  0  0  0  0
 36 35  1  0  0  0  0
 41  5  1  0  0  0  0
 45  6  1  0  0  0  0
 47 12  1  0  0  0  0
 48 14  1  0  0  0  0
 49 19  1  0  0  0  0
 50 25  1  0  0  0  0
 51 26  1  0  0  0  0
 56 32  1  0  0  0  0
M  END
