000-888-946.xyz
 OpenBabel07262113383D
Oc1c(/C=C\2/SC(=NC2=O)S)cccc1O
 23 24  0  0  0  0  0  0  0  0999 V2000
    2.9346    1.1065    9.7557 O   0  0  0  0  0  0  0  0  0  0  0  0
    1.9755    0.6085    8.9422 C   0  0  0  0  0  0  0  0  0  0  0  0
    0.8118    0.0500    9.4728 C   0  0  0  0  0  0  0  0  0  0  0  0
   -0.1773   -0.4400    8.6130 C   0  0  0  0  0  0  0  0  0  0  0  0
   -0.0211   -0.3890    7.2321 C   0  0  0  0  0  0  0  0  0  0  0  0
    1.1578    0.1495    6.6659 C   0  0  0  0  0  0  0  0  0  0  0  0
    1.4964    0.1370    5.2482 C   0  0  0  0  0  0  0  0  0  0  0  0
    0.7678    0.0220    4.1059 C   0  0  0  0  0  0  0  0  0  0  0  0
    1.5943    0.0000    2.5288 S   0  0  0  0  0  0  0  0  0  0  0  0
    0.0000   -0.0000    1.7390 C   0  0  0  0  0  0  0  0  0  0  0  0
    0.0000    0.0000    0.0000 S   0  0  0  0  0  0  0  0  0  0  0  0
   -1.0385   -0.0049    2.5048 N   0  0  0  0  0  0  0  0  0  0  0  0
   -0.7253   -0.0226    3.8727 C   0  0  0  0  0  0  0  0  0  0  0  0
   -1.5680   -0.0634    4.7428 O   0  0  0  0  0  0  0  0  0  0  0  0
    2.1387    0.6623    7.5478 C   0  0  0  0  0  0  0  0  0  0  0  0
    3.3223    1.2277    7.1299 O   0  0  0  0  0  0  0  0  0  0  0  0
    3.6329    1.4672    9.1864 H   0  0  0  0  0  0  0  0  0  0  0  0
    0.6942    0.0245   10.5577 H   0  0  0  0  0  0  0  0  0  0  0  0
   -1.0897   -0.8678    9.0338 H   0  0  0  0  0  0  0  0  0  0  0  0
   -0.7994   -0.7568    6.5700 H   0  0  0  0  0  0  0  0  0  0  0  0
    2.5764    0.2220    5.0770 H   0  0  0  0  0  0  0  0  0  0  0  0
   -2.3019   -0.0316   -0.2961 Au  0  0  0  0  0  0  0  0  0  0  0  0
    3.1800    1.7512    6.3307 H   0  0  0  0  0  0  0  0  0  0  0  0
  2  3  1  0  0  0  0
  2  1  1  0  0  0  0
  3 18  1  0  0  0  0
  4 19  1  0  0  0  0
  4  3  2  0  0  0  0
  5  4  1  0  0  0  0
  6  5  2  0  0  0  0
  6 15  1  0  0  0  0
  7  6  1  0  0  0  0
  8  7  2  0  0  0  0
  9  8  1  0  0  0  0
 10 12  2  0  0  0  0
 10  9  1  0  0  0  0
 11 10  1  0  0  0  0
 12 13  2  0  0  0  0
 13  8  1  0  0  0  0
 13 14  2  0  0  0  0
 15  2  2  0  0  0  0
 16 15  1  0  0  0  0
 17  1  1  0  0  0  0
 20  5  1  0  0  0  0
 21  7  1  0  0  0  0
 22 11  1  0  0  0  0
 23 16  1  0  0  0  0
M  END
