000-888-920.xyz
 OpenBabel07262113383D
CC(c1ccc(cc1)/C=C\1/SC(=NC1=O)S)(C)C
 33 34  0  0  0  0  0  0  0  0999 V2000
   -0.7181   -0.0074   11.5009 C   0  0  0  0  0  0  0  0  0  0  0  0
    0.7496   -0.0100   11.0471 C   0  0  0  0  0  0  0  0  0  0  0  0
    1.4379    1.2480   11.6190 C   0  0  0  0  0  0  0  0  0  0  0  0
    1.4319   -1.2736   11.6137 C   0  0  0  0  0  0  0  0  0  0  0  0
    0.8851   -0.0073    9.5191 C   0  0  0  0  0  0  0  0  0  0  0  0
    2.1632   -0.0087    8.9284 C   0  0  0  0  0  0  0  0  0  0  0  0
    2.3211   -0.0067    7.5501 C   0  0  0  0  0  0  0  0  0  0  0  0
    1.2069   -0.0034    6.6769 C   0  0  0  0  0  0  0  0  0  0  0  0
    1.5035   -0.0020    5.2509 C   0  0  0  0  0  0  0  0  0  0  0  0
    0.7573   -0.0006    4.1122 C   0  0  0  0  0  0  0  0  0  0  0  0
    1.5872   -0.0000    2.5336 S   0  0  0  0  0  0  0  0  0  0  0  0
   -0.0000    0.0000    1.7406 C   0  0  0  0  0  0  0  0  0  0  0  0
    0.0000    0.0000    0.0000 S   0  0  0  0  0  0  0  0  0  0  0  0
   -1.0416   -0.0001    2.5037 N   0  0  0  0  0  0  0  0  0  0  0  0
   -0.7326   -0.0000    3.8720 C   0  0  0  0  0  0  0  0  0  0  0  0
   -1.5876    0.0004    4.7341 O   0  0  0  0  0  0  0  0  0  0  0  0
   -0.0739   -0.0018    7.2654 C   0  0  0  0  0  0  0  0  0  0  0  0
   -0.2187   -0.0036    8.6521 C   0  0  0  0  0  0  0  0  0  0  0  0
   -1.2540    0.8862   11.1463 H   0  0  0  0  0  0  0  0  0  0  0  0
   -0.7663   -0.0098   12.6007 H   0  0  0  0  0  0  0  0  0  0  0  0
   -1.2582   -0.8969   11.1422 H   0  0  0  0  0  0  0  0  0  0  0  0
    2.5080    1.2801   11.3659 H   0  0  0  0  0  0  0  0  0  0  0  0
    1.3522    1.2647   12.7175 H   0  0  0  0  0  0  0  0  0  0  0  0
    0.9708    2.1638   11.2244 H   0  0  0  0  0  0  0  0  0  0  0  0
    0.9598   -2.1855   11.2162 H   0  0  0  0  0  0  0  0  0  0  0  0
    2.5016   -1.3102   11.3594 H   0  0  0  0  0  0  0  0  0  0  0  0
    1.3472   -1.2940   12.7122 H   0  0  0  0  0  0  0  0  0  0  0  0
    3.0551   -0.0115    9.5580 H   0  0  0  0  0  0  0  0  0  0  0  0
    3.3294   -0.0079    7.1274 H   0  0  0  0  0  0  0  0  0  0  0  0
    2.5844   -0.0027    5.0669 H   0  0  0  0  0  0  0  0  0  0  0  0
   -2.3025   -0.0016   -0.2922 Au  0  0  0  0  0  0  0  0  0  0  0  0
   -0.9508    0.0008    6.6219 H   0  0  0  0  0  0  0  0  0  0  0  0
   -1.2305   -0.0023    9.0559 H   0  0  0  0  0  0  0  0  0  0  0  0
  1 20  1  0  0  0  0
  2  1  1  0  0  0  0
  2  4  1  0  0  0  0
  2  3  1  0  0  0  0
  3 23  1  0  0  0  0
  4 27  1  0  0  0  0
  5  2  1  0  0  0  0
  6  5  1  0  0  0  0
  6 28  1  0  0  0  0
  7  6  2  0  0  0  0
  8 17  2  0  0  0  0
  8  7  1  0  0  0  0
  9  8  1  0  0  0  0
 10  9  2  0  0  0  0
 11 10  1  0  0  0  0
 12 14  2  0  0  0  0
 12 11  1  0  0  0  0
 13 12  1  0  0  0  0
 14 15  2  0  0  0  0
 15 10  1  0  0  0  0
 15 16  2  0  0  0  0
 17 18  1  0  0  0  0
 18 33  1  0  0  0  0
 18  5  2  0  0  0  0
 19  1  1  0  0  0  0
 21  1  1  0  0  0  0
 22  3  1  0  0  0  0
 24  3  1  0  0  0  0
 25  4  1  0  0  0  0
 26  4  1  0  0  0  0
 29  7  1  0  0  0  0
 30  9  1  0  0  0  0
 31 13  1  0  0  0  0
 32 17  1  0  0  0  0
M  END
