000-888-934.xyz
 OpenBabel07262113383D
SC1=NC(=O)/C(=C\c2cc3OCOc3cc2Br)/S1
 24 26  0  0  0  0  0  0  0  0999 V2000
    0.0000    0.0000    0.0000 S   0  0  0  0  0  0  0  0  0  0  0  0
   -0.0000   -0.0000    1.7399 C   0  0  0  0  0  0  0  0  0  0  0  0
   -1.0435    0.0000    2.5022 N   0  0  0  0  0  0  0  0  0  0  0  0
   -0.7382   -0.0000    3.8686 C   0  0  0  0  0  0  0  0  0  0  0  0
   -1.5995   -0.0005    4.7269 O   0  0  0  0  0  0  0  0  0  0  0  0
    0.7516    0.0005    4.1149 C   0  0  0  0  0  0  0  0  0  0  0  0
    1.5831    0.0000    2.5355 S   0  0  0  0  0  0  0  0  0  0  0  0
    1.5169    0.0015    5.2430 C   0  0  0  0  0  0  0  0  0  0  0  0
    1.2413    0.0028    6.6692 C   0  0  0  0  0  0  0  0  0  0  0  0
   -0.0816    0.0032    7.2050 C   0  0  0  0  0  0  0  0  0  0  0  0
   -0.2386    0.0062    8.5691 C   0  0  0  0  0  0  0  0  0  0  0  0
   -1.3961   -0.0004    9.2964 O   0  0  0  0  0  0  0  0  0  0  0  0
   -1.0220    0.0456   10.6665 C   0  0  0  0  0  0  0  0  0  0  0  0
    0.4097    0.0055   10.7281 O   0  0  0  0  0  0  0  0  0  0  0  0
    0.8503    0.0081    9.4463 C   0  0  0  0  0  0  0  0  0  0  0  0
    2.1527    0.0066    8.9813 C   0  0  0  0  0  0  0  0  0  0  0  0
    2.3288    0.0043    7.5881 C   0  0  0  0  0  0  0  0  0  0  0  0
    4.1539    0.0046    7.0076 Br  0  0  0  0  0  0  0  0  0  0  0  0
   -2.3026   -0.0011   -0.2931 Au  0  0  0  0  0  0  0  0  0  0  0  0
    2.5899    0.0016    5.0364 H   0  0  0  0  0  0  0  0  0  0  0  0
   -0.9330    0.0005    6.5260 H   0  0  0  0  0  0  0  0  0  0  0  0
   -1.3800    0.9846   11.1261 H   0  0  0  0  0  0  0  0  0  0  0  0
   -1.4348   -0.8272   11.2007 H   0  0  0  0  0  0  0  0  0  0  0  0
    3.0014    0.0071    9.6631 H   0  0  0  0  0  0  0  0  0  0  0  0
  1  2  1  0  0  0  0
  2  3  2  0  0  0  0
  2  7  1  0  0  0  0
  3  4  2  0  0  0  0
  4  6  1  0  0  0  0
  4  5  2  0  0  0  0
  6  8  2  0  0  0  0
  7  6  1  0  0  0  0
  8  9  1  0  0  0  0
  9 10  2  0  0  0  0
  9 17  1  0  0  0  0
 10 11  1  0  0  0  0
 11 12  1  0  0  0  0
 11 15  2  0  0  0  0
 12 13  1  0  0  0  0
 13 14  1  0  0  0  0
 13 22  1  0  0  0  0
 13 23  1  0  0  0  0
 15 14  1  0  0  0  0
 16 15  1  0  0  0  0
 16 24  1  0  0  0  0
 17 16  2  0  0  0  0
 18 17  1  0  0  0  0
 19  1  1  0  0  0  0
 20  8  1  0  0  0  0
 21 10  1  0  0  0  0
M  END
