000-873-719.xyz
 OpenBabel07262113383D
CC(n1c(S)nc2c1cccc2)C
 25 26  0  0  0  0  0  0  0  0999 V2000
    3.2943   -1.2805    2.2483 C   0  0  0  0  0  0  0  0  0  0  0  0
    2.5369    0.0000    1.8919 C   0  0  0  0  0  0  0  0  0  0  0  0
    3.2947    1.2801    2.2492 C   0  0  0  0  0  0  0  0  0  0  0  0
    1.1900    0.0000    2.4709 N   0  0  0  0  0  0  0  0  0  0  0  0
    0.0000    0.0000    1.7643 C   0  0  0  0  0  0  0  0  0  0  0  0
    0.0000    0.0000    0.0000 S   0  0  0  0  0  0  0  0  0  0  0  0
   -1.0649    0.0002    2.5354 N   0  0  0  0  0  0  0  0  0  0  0  0
   -0.5821    0.0004    3.8323 C   0  0  0  0  0  0  0  0  0  0  0  0
   -1.2759    0.0010    5.0497 C   0  0  0  0  0  0  0  0  0  0  0  0
   -0.5345    0.0014    6.2304 C   0  0  0  0  0  0  0  0  0  0  0  0
    0.8737    0.0011    6.2074 C   0  0  0  0  0  0  0  0  0  0  0  0
    1.5843    0.0005    5.0048 C   0  0  0  0  0  0  0  0  0  0  0  0
    0.8392    0.0002    3.8205 C   0  0  0  0  0  0  0  0  0  0  0  0
    3.4850   -1.3540    3.3290 H   0  0  0  0  0  0  0  0  0  0  0  0
    4.2650   -1.3011    1.7297 H   0  0  0  0  0  0  0  0  0  0  0  0
    2.7180   -2.1660    1.9420 H   0  0  0  0  0  0  0  0  0  0  0  0
    2.3765    0.0004    0.8027 H   0  0  0  0  0  0  0  0  0  0  0  0
    3.4855    1.3527    3.3299 H   0  0  0  0  0  0  0  0  0  0  0  0
    4.2653    1.3008    1.7305 H   0  0  0  0  0  0  0  0  0  0  0  0
    2.7186    2.1660    1.9437 H   0  0  0  0  0  0  0  0  0  0  0  0
   -2.3035    0.0046   -0.2405 Au  0  0  0  0  0  0  0  0  0  0  0  0
   -2.3675    0.0012    5.0562 H   0  0  0  0  0  0  0  0  0  0  0  0
   -1.0521    0.0019    7.1926 H   0  0  0  0  0  0  0  0  0  0  0  0
    1.4256    0.0014    7.1502 H   0  0  0  0  0  0  0  0  0  0  0  0
    2.6741    0.0003    5.0063 H   0  0  0  0  0  0  0  0  0  0  0  0
  1 14  1  0  0  0  0
  2  1  1  0  0  0  0
  2  3  1  0  0  0  0
  2  4  1  0  0  0  0
  3 18  1  0  0  0  0
  4 13  1  0  0  0  0
  5  4  1  0  0  0  0
  5  7  2  0  0  0  0
  6  5  1  0  0  0  0
  7  8  2  0  0  0  0
  8  9  1  0  0  0  0
  9 22  1  0  0  0  0
  9 10  2  0  0  0  0
 10 23  1  0  0  0  0
 11 10  1  0  0  0  0
 11 24  1  0  0  0  0
 12 25  1  0  0  0  0
 12 11  1  0  0  0  0
 13  8  1  0  0  0  0
 13 12  2  0  0  0  0
 15  1  1  0  0  0  0
 16  1  1  0  0  0  0
 17  2  1  0  0  0  0
 19  3  1  0  0  0  0
 20  3  1  0  0  0  0
 21  6  1  0  0  0  0
M  RAD  1  11   2
M  END
