000-711-485.xyz
 OpenBabel07262113333D
Fc1ccc(cc1)N1C(=NC(=O)/C(=C/c2cn(c3c2cccc3)C)/C1=O)S
 41 44  0  0  0  0  0  0  0  0999 V2000
   -1.8578    0.1818   10.5193 C   0  0  0  0  0  0  0  0  0  0  0  0
   -1.8266    0.4332    9.0956 N   0  0  0  0  0  0  0  0  0  0  0  0
   -0.8169    0.1293    8.2432 C   0  0  0  0  0  0  0  0  0  0  0  0
   -1.1395    0.4901    6.9279 C   0  0  0  0  0  0  0  0  0  0  0  0
   -0.1850    0.2348    5.8946 C   0  0  0  0  0  0  0  0  0  0  0  0
   -0.2242    0.1347    4.5249 C   0  0  0  0  0  0  0  0  0  0  0  0
    1.1023    0.0080    3.8372 C   0  0  0  0  0  0  0  0  0  0  0  0
    2.1498   -0.0604    4.4565 O   0  0  0  0  0  0  0  0  0  0  0  0
    1.1053   -0.0000    2.4427 N   0  0  0  0  0  0  0  0  0  0  0  0
    0.0000   -0.0000    1.7737 C   0  0  0  0  0  0  0  0  0  0  0  0
    0.0000    0.0000    0.0000 S   0  0  0  0  0  0  0  0  0  0  0  0
   -1.2661   -0.0112    2.3333 N   0  0  0  0  0  0  0  0  0  0  0  0
   -1.4547    0.0074    3.7448 C   0  0  0  0  0  0  0  0  0  0  0  0
   -2.5807   -0.1197    4.1865 O   0  0  0  0  0  0  0  0  0  0  0  0
   -2.4409   -0.0909    1.5102 C   0  0  0  0  0  0  0  0  0  0  0  0
   -3.0355    1.0832    1.0385 C   0  0  0  0  0  0  0  0  0  0  0  0
   -4.1762    1.0158    0.2400 C   0  0  0  0  0  0  0  0  0  0  0  0
   -4.7081   -0.2353   -0.0656 C   0  0  0  0  0  0  0  0  0  0  0  0
   -5.8033   -0.3062   -0.8322 F   0  0  0  0  0  0  0  0  0  0  0  0
   -4.1340   -1.4154    0.4044 C   0  0  0  0  0  0  0  0  0  0  0  0
   -2.9931   -1.3372    1.2005 C   0  0  0  0  0  0  0  0  0  0  0  0
   -2.4510    1.1267    7.0117 C   0  0  0  0  0  0  0  0  0  0  0  0
   -3.2870    1.8183    6.1189 C   0  0  0  0  0  0  0  0  0  0  0  0
   -4.4772    2.3680    6.5905 C   0  0  0  0  0  0  0  0  0  0  0  0
   -4.8568    2.2580    7.9414 C   0  0  0  0  0  0  0  0  0  0  0  0
   -4.0359    1.6080    8.8601 C   0  0  0  0  0  0  0  0  0  0  0  0
   -2.8414    1.0649    8.3784 C   0  0  0  0  0  0  0  0  0  0  0  0
   -1.9534    1.1258   11.0793 H   0  0  0  0  0  0  0  0  0  0  0  0
   -0.9273   -0.3155   10.8215 H   0  0  0  0  0  0  0  0  0  0  0  0
   -2.7083   -0.4675   10.7814 H   0  0  0  0  0  0  0  0  0  0  0  0
    0.0893   -0.3588    8.5999 H   0  0  0  0  0  0  0  0  0  0  0  0
    0.8356    0.0846    6.2684 H   0  0  0  0  0  0  0  0  0  0  0  0
    2.3088   -0.0008   -0.2529 Au  0  0  0  0  0  0  0  0  0  0  0  0
   -2.5935    2.0474    1.2942 H   0  0  0  0  0  0  0  0  0  0  0  0
   -4.6589    1.9140   -0.1479 H   0  0  0  0  0  0  0  0  0  0  0  0
   -4.5865   -2.3732    0.1434 H   0  0  0  0  0  0  0  0  0  0  0  0
   -2.5214   -2.2423    1.5854 H   0  0  0  0  0  0  0  0  0  0  0  0
   -3.0208    1.9145    5.0708 H   0  0  0  0  0  0  0  0  0  0  0  0
   -5.1329    2.8953    5.8939 H   0  0  0  0  0  0  0  0  0  0  0  0
   -5.7995    2.6965    8.2764 H   0  0  0  0  0  0  0  0  0  0  0  0
   -4.3110    1.5380    9.9140 H   0  0  0  0  0  0  0  0  0  0  0  0
  1 30  1  0  0  0  0
  1 29  1  0  0  0  0
  1 28  1  0  0  0  0
  2  1  1  0  0  0  0
  3 31  1  0  0  0  0
  3  2  1  0  0  0  0
  4 22  1  0  0  0  0
  4  3  2  0  0  0  0
  5 32  1  0  0  0  0
  5  4  1  0  0  0  0
  6  5  2  0  0  0  0
  7  8  2  0  0  0  0
  7  6  1  0  0  0  0
  9  7  2  0  0  0  0
 10 12  1  0  0  0  0
 10  9  2  0  0  0  0
 11 10  1  0  0  0  0
 12 13  1  0  0  0  0
 13 14  2  0  0  0  0
 13  6  1  0  0  0  0
 15 12  1  0  0  0  0
 16 34  1  0  0  0  0
 16 15  2  0  0  0  0
 17 16  1  0  0  0  0
 18 17  2  0  0  0  0
 18 20  1  0  0  0  0
 19 18  1  0  0  0  0
 20 21  2  0  0  0  0
 21 15  1  0  0  0  0
 21 37  1  0  0  0  0
 22 27  2  0  0  0  0
 23 24  2  0  0  0  0
 23 22  1  0  0  0  0
 24 25  1  0  0  0  0
 25 40  1  0  0  0  0
 25 26  2  0  0  0  0
 26 41  1  0  0  0  0
 27 26  1  0  0  0  0
 27  2  1  0  0  0  0
 33 11  1  0  0  0  0
 35 17  1  0  0  0  0
 36 20  1  0  0  0  0
 38 23  1  0  0  0  0
 39 24  1  0  0  0  0
M  END
