000-851-953.xyz
 OpenBabel07262113383D
SC1=NC(=O)/C(=C\c2cccn2c2ccc(cc2)N(C)C)/C(=N1)O
 40 43  0  0  1  0  0  0  0  0999 V2000
    5.0691   -1.5128    0.2276 C   0  0  0  0  0  0  0  0  0  0  0  0
    3.8435   -2.3160    0.4010 N   0  0  0  0  0  0  0  0  0  0  0  0
    3.9329   -3.5385   -0.4313 C   0  0  0  0  0  0  0  0  0  0  0  0
    3.5066   -2.6114    1.7964 C   0  0  0  0  0  0  0  0  0  0  0  0
    4.2720   -2.1367    2.8656 C   0  0  0  0  0  0  0  0  0  0  0  0
    3.8019   -2.2482    4.1760 C   0  0  0  0  0  0  0  0  0  0  0  0
    2.5697   -2.8453    4.4318 C   0  0  0  0  0  0  0  0  0  0  0  0
    1.8445   -3.4080    3.3758 C   0  0  0  0  0  0  0  0  0  0  0  0
    2.3095   -3.2938    2.0715 C   0  0  0  0  0  0  0  0  0  0  0  0
    2.0313   -2.8488    5.7487 N   0  0  0  0  0  0  0  0  0  0  0  0
    2.6611   -3.4276    6.8183 C   0  0  0  0  0  0  0  0  0  0  0  0
    1.8024   -3.4295    7.9089 C   0  0  0  0  0  0  0  0  0  0  0  0
    0.5930   -2.8507    7.4749 C   0  0  0  0  0  0  0  0  0  0  0  0
    0.7440   -2.4608    6.1355 C   0  0  0  0  0  0  0  0  0  0  0  0
   -0.2483   -1.7625    5.3707 C   0  0  0  0  0  0  0  0  0  0  0  0
   -0.1425   -0.9423    4.2798 C   0  0  1  0  0  0  0  0  0  0  0  0
   -1.3229   -0.5309    3.5300 C   0  0  0  0  0  0  0  0  0  0  0  0
   -2.5197   -0.6974    4.1048 O   0  0  0  0  0  0  0  0  0  0  0  0
   -1.2641   -0.0525    2.3264 N   0  0  0  0  0  0  0  0  0  0  0  0
    0.0000    0.0000    1.7621 C   0  0  0  0  0  0  0  0  0  0  0  0
    0.0000    0.0000    0.0000 S   0  0  0  0  0  0  0  0  0  0  0  0
    1.1254   -0.0000    2.4294 N   0  0  0  0  0  0  0  0  0  0  0  0
    1.1147   -0.3027    3.7728 C   0  0  0  0  0  0  0  0  0  0  0  0
    2.0604   -0.0786    4.5141 O   0  0  0  0  0  0  0  0  0  0  0  0
    4.9768   -0.5656    0.7715 H   0  0  0  0  0  0  0  0  0  0  0  0
    5.1880   -1.2921   -0.8401 H   0  0  0  0  0  0  0  0  0  0  0  0
    5.9604   -2.0609    0.5825 H   0  0  0  0  0  0  0  0  0  0  0  0
    4.7745   -4.1696   -0.0944 H   0  0  0  0  0  0  0  0  0  0  0  0
    4.0882   -3.2464   -1.4776 H   0  0  0  0  0  0  0  0  0  0  0  0
    3.0043   -4.1147   -0.3680 H   0  0  0  0  0  0  0  0  0  0  0  0
    5.2076   -1.6079    2.6994 H   0  0  0  0  0  0  0  0  0  0  0  0
    4.3559   -1.7867    4.9929 H   0  0  0  0  0  0  0  0  0  0  0  0
    0.8906   -3.8972    3.5742 H   0  0  0  0  0  0  0  0  0  0  0  0
    1.6945   -3.6793    1.2580 H   0  0  0  0  0  0  0  0  0  0  0  0
    3.6583   -3.8457    6.7016 H   0  0  0  0  0  0  0  0  0  0  0  0
    2.0293   -3.8212    8.8977 H   0  0  0  0  0  0  0  0  0  0  0  0
   -0.3025   -2.6732    8.0677 H   0  0  0  0  0  0  0  0  0  0  0  0
   -1.2645   -1.9398    5.7374 H   0  0  0  0  0  0  0  0  0  0  0  0
   -3.1762   -0.4153    3.4444 H   0  0  0  0  0  0  0  0  0  0  0  0
    2.0688   -1.0606   -0.1091 Au  0  0  0  0  0  0  0  0  0  0  0  0
  1  2  1  0  0  0  0
  1 27  1  0  0  0  0
  1 25  1  0  0  0  0
  2  4  1  0  0  0  0
  3 30  1  0  0  0  0
  3 28  1  0  0  0  0
  3  2  1  0  0  0  0
  4  9  2  0  0  0  0
  4  5  1  0  0  0  0
  5  6  2  0  0  0  0
  6  7  1  0  0  0  0
  6 32  1  0  0  0  0
  7 10  1  0  0  0  0
  8 33  1  0  0  0  0
  8  7  2  0  0  0  0
  9  8  1  0  0  0  0
 10 14  1  0  0  0  0
 10 11  1  0  0  0  0
 11 12  2  0  0  0  0
 12 36  1  0  0  0  0
 13 12  1  0  0  0  0
 13 37  1  0  0  0  0
 14 13  2  0  0  0  0
 15 38  1  0  0  0  0
 15 14  1  0  0  0  0
 16 17  1  1  0  0  0
 16 15  1  0  0  0  0
 17 18  1  0  0  0  0
 19 17  2  0  0  0  0
 20 19  2  0  0  0  0
 20 22  2  0  0  0  0
 21 20  1  0  0  0  0
 22 23  2  0  0  0  0
 23 16  1  0  0  0  0
 23 24  2  0  0  0  0
 26  1  1  0  0  0  0
 29  3  1  0  0  0  0
 31  5  1  0  0  0  0
 34  9  1  0  0  0  0
 35 11  1  0  0  0  0
 39 18  1  0  0  0  0
 40 21  1  0  0  0  0
 40  2  1  0  0  0  0
M  RAD  2  15   2  16   2
M  END
