000-780-964.xyz
 OpenBabel07262113363D
SC1=NC(=O)/C(=C\NC(=N)Nc2nc(C)c3c(n2)cc(c(c3)C)C)/C(=N1)O
 44 46  0  0  1  0  0  0  0  0999 V2000
   -1.6223   -0.0295   15.4830 C   0  0  0  0  0  0  0  0  0  0  0  0
   -2.5419   -0.0248   14.2918 C   0  0  0  0  0  0  0  0  0  0  0  0
   -2.0252   -0.0214   13.0081 C   0  0  0  0  0  0  0  0  0  0  0  0
   -2.8677   -0.0169   11.8704 C   0  0  0  0  0  0  0  0  0  0  0  0
   -2.3245   -0.0136   10.6211 N   0  0  0  0  0  0  0  0  0  0  0  0
   -3.1671   -0.0096    9.6123 C   0  0  0  0  0  0  0  0  0  0  0  0
   -2.6953   -0.0064    8.3110 N   0  0  0  0  0  0  0  0  0  0  0  0
   -1.3685   -0.0067    7.8946 C   0  0  0  0  0  0  0  0  0  0  0  0
   -0.3098   -0.0094    8.5934 N   0  0  0  0  0  0  0  0  0  0  0  0
   -1.2905   -0.0035    6.4840 N   0  0  0  0  0  0  0  0  0  0  0  0
   -0.1303   -0.0031    5.8319 C   0  0  0  0  0  0  0  0  0  0  0  0
   -0.0685   -0.0010    4.4459 C   0  0  1  0  0  0  0  0  0  0  0  0
    1.1701   -0.0004    3.7106 C   0  0  0  0  0  0  0  0  0  0  0  0
    2.3604   -0.0001    4.3246 O   0  0  0  0  0  0  0  0  0  0  0  0
    1.2065    0.0000    2.4067 N   0  0  0  0  0  0  0  0  0  0  0  0
   -0.0000    0.0000    1.7652 C   0  0  0  0  0  0  0  0  0  0  0  0
    0.0000    0.0000    0.0000 S   0  0  0  0  0  0  0  0  0  0  0  0
   -1.2009    0.0001    2.2863 N   0  0  0  0  0  0  0  0  0  0  0  0
   -1.3212   -0.0002    3.6470 C   0  0  0  0  0  0  0  0  0  0  0  0
   -2.4321   -0.0002    4.2068 O   0  0  0  0  0  0  0  0  0  0  0  0
   -4.5262   -0.0083    9.6821 N   0  0  0  0  0  0  0  0  0  0  0  0
   -5.0828   -0.0113   10.8744 C   0  0  0  0  0  0  0  0  0  0  0  0
   -6.5833   -0.0097   10.9418 C   0  0  0  0  0  0  0  0  0  0  0  0
   -4.2791   -0.0159   12.0628 C   0  0  2  0  0  0  0  0  0  0  0  0
   -4.7948   -0.0194   13.3817 C   0  0  0  0  0  0  0  0  0  0  0  0
   -3.9634   -0.0238   14.4875 C   0  0  0  0  0  0  0  0  0  0  0  0
   -4.5338   -0.0273   15.8808 C   0  0  0  0  0  0  0  0  0  0  0  0
   -0.5679   -0.0298   15.1751 H   0  0  0  0  0  0  0  0  0  0  0  0
   -1.7919    0.8521   16.1232 H   0  0  0  0  0  0  0  0  0  0  0  0
   -1.7939   -0.9147   16.1178 H   0  0  0  0  0  0  0  0  0  0  0  0
   -0.9466   -0.0221   12.8399 H   0  0  0  0  0  0  0  0  0  0  0  0
   -3.4332   -0.0036    7.6141 H   0  0  0  0  0  0  0  0  0  0  0  0
   -0.5493   -0.0115    9.5889 H   0  0  0  0  0  0  0  0  0  0  0  0
   -2.1043   -0.0021    5.8149 H   0  0  0  0  0  0  0  0  0  0  0  0
    0.7438   -0.0048    6.4953 H   0  0  0  0  0  0  0  0  0  0  0  0
    2.2535    0.0011    5.2847 H   0  0  0  0  0  0  0  0  0  0  0  0
    2.2581   -0.0002   -0.4623 Au  0  0  0  0  0  0  0  0  0  0  0  0
   -6.9522    0.8756   11.4841 H   0  0  0  0  0  0  0  0  0  0  0  0
   -6.9543   -0.8974   11.4788 H   0  0  0  0  0  0  0  0  0  0  0  0
   -6.9948   -0.0062    9.9254 H   0  0  0  0  0  0  0  0  0  0  0  0
   -5.8761   -0.0187   13.5324 H   0  0  0  0  0  0  0  0  0  0  0  0
   -4.2057   -0.9128   16.4505 H   0  0  0  0  0  0  0  0  0  0  0  0
   -4.2041    0.8543   16.4555 H   0  0  0  0  0  0  0  0  0  0  0  0
   -5.6326   -0.0263   15.8621 H   0  0  0  0  0  0  0  0  0  0  0  0
  1 30  1  0  0  0  0
  1 29  1  0  0  0  0
  2 26  1  0  0  0  0
  2  1  1  0  0  0  0
  3  2  2  0  0  0  0
  4 24  1  0  0  0  0
  4  3  1  0  0  0  0
  5  4  2  0  0  0  0
  6 21  2  0  0  0  0
  6  5  2  0  0  0  0
  7  6  1  0  0  0  0
  8  7  1  0  0  0  0
  8  9  2  0  0  0  0
  9 33  1  0  0  0  0
 10  8  1  0  0  0  0
 11 10  2  0  0  0  0
 11 35  1  0  0  0  0
 12 11  1  6  0  0  0
 13 14  1  0  0  0  0
 13 12  1  0  0  0  0
 14 36  1  0  0  0  0
 15 13  2  0  0  0  0
 16 18  2  0  0  0  0
 16 15  2  0  0  0  0
 17 16  1  0  0  0  0
 18 19  2  0  0  0  0
 19 20  2  0  0  0  0
 19 12  1  0  0  0  0
 21 22  2  0  0  0  0
 22 23  1  0  0  0  0
 23 39  1  0  0  0  0
 23 38  1  0  0  0  0
 24 22  1  1  0  0  0
 24 25  1  0  0  0  0
 25 41  1  0  0  0  0
 25 26  2  0  0  0  0
 26 27  1  0  0  0  0
 27 42  1  0  0  0  0
 27 43  1  0  0  0  0
 28  1  1  0  0  0  0
 31  3  1  0  0  0  0
 32  7  1  0  0  0  0
 34 10  1  0  0  0  0
 37 17  1  0  0  0  0
 40 23  1  0  0  0  0
 44 27  1  0  0  0  0
M  RAD  2  12   2  24   2
M  END
