000-753-171.xyz
 OpenBabel07262113353D
SC1=NC(=O)/C(=C\c2ccc(o2)c2ccc(cc2)C(=O)O)/C(=N1)O
 34 36  0  0  0  0  0  0  0  0999 V2000
    1.2575    4.3162   14.6497 O   0  0  0  0  0  0  0  0  0  0  0  0
    0.1967    4.1374   13.8359 C   0  0  0  0  0  0  0  0  0  0  0  0
   -0.9269    4.4479   14.1549 O   0  0  0  0  0  0  0  0  0  0  0  0
    0.5650    3.5263   12.5287 C   0  0  0  0  0  0  0  0  0  0  0  0
   -0.4567    3.2930   11.5960 C   0  0  0  0  0  0  0  0  0  0  0  0
   -0.1655    2.7248   10.3622 C   0  0  0  0  0  0  0  0  0  0  0  0
    1.1605    2.3763   10.0340 C   0  0  0  0  0  0  0  0  0  0  0  0
    2.1823    2.6137   10.9751 C   0  0  0  0  0  0  0  0  0  0  0  0
    1.8881    3.1824   12.2088 C   0  0  0  0  0  0  0  0  0  0  0  0
    1.4732    1.7818    8.7454 C   0  0  0  0  0  0  0  0  0  0  0  0
    2.6631    1.3522    8.1716 C   0  0  0  0  0  0  0  0  0  0  0  0
    2.3480    0.8555    6.8915 C   0  0  0  0  0  0  0  0  0  0  0  0
    0.9714    1.0060    6.7278 C   0  0  0  0  0  0  0  0  0  0  0  0
   -0.0165    0.7373    5.7463 C   0  0  0  0  0  0  0  0  0  0  0  0
    0.0405    0.2883    4.4459 C   0  0  0  0  0  0  0  0  0  0  0  0
   -1.1969    0.0967    3.6900 C   0  0  0  0  0  0  0  0  0  0  0  0
   -2.3832    0.0381    4.3112 O   0  0  0  0  0  0  0  0  0  0  0  0
   -1.2207   -0.0274    2.4009 N   0  0  0  0  0  0  0  0  0  0  0  0
    0.0000   -0.0000    1.7622 C   0  0  0  0  0  0  0  0  0  0  0  0
    0.0000    0.0000    0.0000 S   0  0  0  0  0  0  0  0  0  0  0  0
    1.1839   -0.0000    2.2985 N   0  0  0  0  0  0  0  0  0  0  0  0
    1.3054    0.0634    3.6718 C   0  0  0  0  0  0  0  0  0  0  0  0
    2.3901   -0.0251    4.2286 O   0  0  0  0  0  0  0  0  0  0  0  0
    0.4595    1.5717    7.8824 O   0  0  0  0  0  0  0  0  0  0  0  0
    0.9153    4.7161   15.4668 H   0  0  0  0  0  0  0  0  0  0  0  0
   -1.4782    3.5679   11.8635 H   0  0  0  0  0  0  0  0  0  0  0  0
   -0.9599    2.5450    9.6375 H   0  0  0  0  0  0  0  0  0  0  0  0
    3.2142    2.3506   10.7374 H   0  0  0  0  0  0  0  0  0  0  0  0
    2.6807    3.3648   12.9345 H   0  0  0  0  0  0  0  0  0  0  0  0
    3.6481    1.3890    8.6291 H   0  0  0  0  0  0  0  0  0  0  0  0
    3.0003    0.4279    6.1387 H   0  0  0  0  0  0  0  0  0  0  0  0
   -1.0079    0.9970    6.1370 H   0  0  0  0  0  0  0  0  0  0  0  0
   -2.2558   -0.0624    5.2639 H   0  0  0  0  0  0  0  0  0  0  0  0
   -2.2547   -0.0516   -0.4756 Au  0  0  0  0  0  0  0  0  0  0  0  0
  1 25  1  0  0  0  0
  2  3  2  0  0  0  0
  2  1  1  0  0  0  0
  4  2  1  0  0  0  0
  5 26  1  0  0  0  0
  5  4  2  0  0  0  0
  6  5  1  0  0  0  0
  7  6  2  0  0  0  0
  7  8  1  0  0  0  0
  8  9  2  0  0  0  0
  9  4  1  0  0  0  0
  9 29  1  0  0  0  0
 10  7  1  0  0  0  0
 11 30  1  0  0  0  0
 11 10  2  0  0  0  0
 12 11  1  0  0  0  0
 13 12  2  0  0  0  0
 13 24  1  0  0  0  0
 14 32  1  0  0  0  0
 14 13  1  0  0  0  0
 15 14  2  0  0  0  0
 16 17  1  0  0  0  0
 16 15  1  0  0  0  0
 17 33  1  0  0  0  0
 18 16  2  0  0  0  0
 19 21  2  0  0  0  0
 19 18  2  0  0  0  0
 20 19  1  0  0  0  0
 21 22  2  0  0  0  0
 22 23  2  0  0  0  0
 22 15  1  0  0  0  0
 24 10  1  0  0  0  0
 27  6  1  0  0  0  0
 28  8  1  0  0  0  0
 31 12  1  0  0  0  0
 34 20  1  0  0  0  0
M  END
