000-752-894.xyz
 OpenBabel07262113353D
SC1=NC(=O)/C(=C\c2ccc(o2)c2ccc(cc2Br)[N+](=O)[O-])/C(=N1)O
 33 35  0  0  0  0  0  0  0  0999 V2000
   -2.3866   -0.0425    4.3077 O   0  0  0  0  0  0  0  0  0  0  0  0
   -1.2018   -0.1012    3.6864 C   0  0  0  0  0  0  0  0  0  0  0  0
   -1.2224    0.0278    2.3989 N   0  0  0  0  0  0  0  0  0  0  0  0
    0.0000   -0.0000    1.7603 C   0  0  0  0  0  0  0  0  0  0  0  0
    0.0000    0.0000    0.0000 S   0  0  0  0  0  0  0  0  0  0  0  0
    1.1833   -0.0000    2.2983 N   0  0  0  0  0  0  0  0  0  0  0  0
    1.3033   -0.0657    3.6707 C   0  0  0  0  0  0  0  0  0  0  0  0
    2.3850    0.0265    4.2315 O   0  0  0  0  0  0  0  0  0  0  0  0
    0.0369   -0.2997    4.4431 C   0  0  0  0  0  0  0  0  0  0  0  0
   -0.0205   -0.7596    5.7362 C   0  0  0  0  0  0  0  0  0  0  0  0
    0.9734   -1.0393    6.7141 C   0  0  0  0  0  0  0  0  0  0  0  0
    2.3482   -0.8902    6.8816 C   0  0  0  0  0  0  0  0  0  0  0  0
    2.6581   -1.4057    8.1576 C   0  0  0  0  0  0  0  0  0  0  0  0
    1.4638   -1.8361    8.7204 C   0  0  0  0  0  0  0  0  0  0  0  0
    0.4575   -1.6173    7.8565 O   0  0  0  0  0  0  0  0  0  0  0  0
    1.1943   -2.4637   10.0096 C   0  0  0  0  0  0  0  0  0  0  0  0
    2.2346   -3.2302   10.5833 C   0  0  0  0  0  0  0  0  0  0  0  0
    2.0952   -3.8658   11.8088 C   0  0  0  0  0  0  0  0  0  0  0  0
    0.8801   -3.7404   12.4803 C   0  0  0  0  0  0  0  0  0  0  0  0
   -0.1739   -2.9937   11.9645 C   0  0  0  0  0  0  0  0  0  0  0  0
   -0.0167   -2.3513   10.7359 C   0  0  0  0  0  0  0  0  0  0  0  0
   -1.4795   -1.2802   10.1578 Br  0  0  0  0  0  0  0  0  0  0  0  0
    0.7010   -4.4155   13.7823 N   0  0  0  0  0  0  0  0  0  0  0  0
    1.6469   -5.0527   14.2139 O   0  0  0  0  0  0  0  0  0  0  0  0
   -0.3777   -4.2903   14.3367 O   0  0  0  0  0  0  0  0  0  0  0  0
   -2.2610    0.0449    5.2621 H   0  0  0  0  0  0  0  0  0  0  0  0
   -2.2545    0.0517   -0.4777 Au  0  0  0  0  0  0  0  0  0  0  0  0
   -1.0098   -1.0207    6.1308 H   0  0  0  0  0  0  0  0  0  0  0  0
    3.0034   -0.4456    6.1412 H   0  0  0  0  0  0  0  0  0  0  0  0
    3.6369   -1.4309    8.6297 H   0  0  0  0  0  0  0  0  0  0  0  0
    3.1654   -3.3441   10.0264 H   0  0  0  0  0  0  0  0  0  0  0  0
    2.8944   -4.4626   12.2452 H   0  0  0  0  0  0  0  0  0  0  0  0
   -1.0990   -2.9114   12.5321 H   0  0  0  0  0  0  0  0  0  0  0  0
  1 26  1  0  0  0  0
  2  1  1  0  0  0  0
  2  9  1  0  0  0  0
  3  2  2  0  0  0  0
  4  6  2  0  0  0  0
  4  3  2  0  0  0  0
  5  4  1  0  0  0  0
  6  7  2  0  0  0  0
  7  8  2  0  0  0  0
  7  9  1  0  0  0  0
  9 10  2  0  0  0  0
 10 28  1  0  0  0  0
 10 11  1  0  0  0  0
 11 12  2  0  0  0  0
 11 15  1  0  0  0  0
 12 13  1  0  0  0  0
 13 30  1  0  0  0  0
 13 14  2  0  0  0  0
 14 16  1  0  0  0  0
 15 14  1  0  0  0  0
 16 17  2  0  0  0  0
 16 21  1  0  0  0  0
 17 18  1  0  0  0  0
 18 32  1  0  0  0  0
 18 19  2  0  0  0  0
 19 23  1  0  0  0  0
 20 19  1  0  0  0  0
 20 33  1  0  0  0  0
 21 20  2  0  0  0  0
 22 21  1  0  0  0  0
 23 24  2  0  0  0  0
 23 25  2  0  0  0  0
 27  5  1  0  0  0  0
 29 12  1  0  0  0  0
 31 17  1  0  0  0  0
M  END
