000-721-052.xyz
 OpenBabel07262113333D
Brc1ccc(cc1)N1C(=NC(=O)/C(=C/c2cc3CCCN4c3c(c2)CCC4)/C1=O)S
 50 54  0  0  0  0  0  0  0  0999 V2000
    0.0000    0.0000    0.0000 S   0  0  0  0  0  0  0  0  0  0  0  0
   -0.0000    0.0000    1.7746 C   0  0  0  0  0  0  0  0  0  0  0  0
   -1.1025   -0.0000    2.4444 N   0  0  0  0  0  0  0  0  0  0  0  0
   -1.0972   -0.0000    3.8396 C   0  0  0  0  0  0  0  0  0  0  0  0
   -2.1536    0.0005    4.4485 O   0  0  0  0  0  0  0  0  0  0  0  0
    0.2326   -0.0010    4.5427 C   0  0  0  0  0  0  0  0  0  0  0  0
    0.1491   -0.0031    5.9228 C   0  0  0  0  0  0  0  0  0  0  0  0
    1.0325   -0.0058    7.0521 C   0  0  0  0  0  0  0  0  0  0  0  0
    0.4060   -0.0108    8.3281 C   0  0  0  0  0  0  0  0  0  0  0  0
    1.1109   -0.0281    9.5163 C   0  0  0  0  0  0  0  0  0  0  0  0
    0.4147   -0.0557   10.8552 C   0  0  0  0  0  0  0  0  0  0  0  0
    1.2466    0.7011   11.8878 C   0  0  0  0  0  0  0  0  0  0  0  0
    2.6452    0.1050   11.9557 C   0  0  0  0  0  0  0  0  0  0  0  0
    3.2651   -0.0171   10.6421 N   0  0  0  0  0  0  0  0  0  0  0  0
    4.7174   -0.1459   10.6593 C   0  0  0  0  0  0  0  0  0  0  0  0
    5.2654   -0.7358    9.3680 C   0  0  0  0  0  0  0  0  0  0  0  0
    4.7016    0.0291    8.1732 C   0  0  0  0  0  0  0  0  0  0  0  0
    3.1926    0.0052    8.2107 C   0  0  0  0  0  0  0  0  0  0  0  0
    2.4510   -0.0044    7.0431 C   0  0  0  0  0  0  0  0  0  0  0  0
    2.5374   -0.0137    9.4787 C   0  0  0  0  0  0  0  0  0  0  0  0
    1.4592   -0.0004    3.7483 C   0  0  0  0  0  0  0  0  0  0  0  0
    2.6106   -0.0003    4.1523 O   0  0  0  0  0  0  0  0  0  0  0  0
    1.2633   -0.0000    2.3377 N   0  0  0  0  0  0  0  0  0  0  0  0
    2.4388    0.0005    1.5112 C   0  0  0  0  0  0  0  0  0  0  0  0
    3.0105   -1.2111    1.1151 C   0  0  0  0  0  0  0  0  0  0  0  0
    4.1464   -1.2164    0.3068 C   0  0  0  0  0  0  0  0  0  0  0  0
    4.7039    0.0014   -0.0928 C   0  0  0  0  0  0  0  0  0  0  0  0
    6.2537    0.0019   -1.1989 Br  0  0  0  0  0  0  0  0  0  0  0  0
    4.1449    1.2188    0.3060 C   0  0  0  0  0  0  0  0  0  0  0  0
    3.0089    1.2125    1.1143 C   0  0  0  0  0  0  0  0  0  0  0  0
   -2.3100   -0.0025   -0.2445 Au  0  0  0  0  0  0  0  0  0  0  0  0
   -0.9067   -0.0034    6.2189 H   0  0  0  0  0  0  0  0  0  0  0  0
   -0.6867   -0.0098    8.3723 H   0  0  0  0  0  0  0  0  0  0  0  0
   -0.5949    0.3729   10.7652 H   0  0  0  0  0  0  0  0  0  0  0  0
    0.2825   -1.1007   11.1929 H   0  0  0  0  0  0  0  0  0  0  0  0
    0.7872    0.6575   12.8872 H   0  0  0  0  0  0  0  0  0  0  0  0
    1.3119    1.7644   11.6020 H   0  0  0  0  0  0  0  0  0  0  0  0
    3.2975    0.7382   12.5818 H   0  0  0  0  0  0  0  0  0  0  0  0
    2.6106   -0.8890   12.4456 H   0  0  0  0  0  0  0  0  0  0  0  0
    4.9912   -0.7855   11.5163 H   0  0  0  0  0  0  0  0  0  0  0  0
    5.1766    0.8452   10.8489 H   0  0  0  0  0  0  0  0  0  0  0  0
    4.9772   -1.7981    9.2961 H   0  0  0  0  0  0  0  0  0  0  0  0
    6.3652   -0.6955    9.3918 H   0  0  0  0  0  0  0  0  0  0  0  0
    5.0590   -0.3921    7.2221 H   0  0  0  0  0  0  0  0  0  0  0  0
    5.0639    1.0737    8.2084 H   0  0  0  0  0  0  0  0  0  0  0  0
    2.9617   -0.0016    6.0830 H   0  0  0  0  0  0  0  0  0  0  0  0
    2.5568   -2.1491    1.4388 H   0  0  0  0  0  0  0  0  0  0  0  0
    4.5965   -2.1574   -0.0112 H   0  0  0  0  0  0  0  0  0  0  0  0
    4.5938    2.1601   -0.0127 H   0  0  0  0  0  0  0  0  0  0  0  0
    2.5542    2.1502    1.4374 H   0  0  0  0  0  0  0  0  0  0  0  0
  1  2  1  0  0  0  0
  2 23  1  0  0  0  0
  2  3  2  0  0  0  0
  3  4  2  0  0  0  0
  4  5  2  0  0  0  0
  4  6  1  0  0  0  0
  6  7  2  0  0  0  0
  7 32  1  0  0  0  0
  7  8  1  0  0  0  0
  8  9  1  0  0  0  0
  9 33  1  0  0  0  0
  9 10  2  0  0  0  0
 10 11  1  0  0  0  0
 11 35  1  0  0  0  0
 11 12  1  0  0  0  0
 12 13  1  0  0  0  0
 12 36  1  0  0  0  0
 13 39  1  0  0  0  0
 13 38  1  0  0  0  0
 14 15  1  0  0  0  0
 14 13  1  0  0  0  0
 15 41  1  0  0  0  0
 15 40  1  0  0  0  0
 16 43  1  0  0  0  0
 16 15  1  0  0  0  0
 17 45  1  0  0  0  0
 17 18  1  0  0  0  0
 17 16  1  0  0  0  0
 18 20  2  0  0  0  0
 19  8  2  0  0  0  0
 19 18  1  0  0  0  0
 20 10  1  0  0  0  0
 20 14  1  0  0  0  0
 21 22  2  0  0  0  0
 21  6  1  0  0  0  0
 23 21  1  0  0  0  0
 24 23  1  0  0  0  0
 25 47  1  0  0  0  0
 25 24  1  0  0  0  0
 26 25  2  0  0  0  0
 27 29  2  0  0  0  0
 27 26  1  0  0  0  0
 28 27  1  0  0  0  0
 29 30  1  0  0  0  0
 30 50  1  0  0  0  0
 30 24  2  0  0  0  0
 31  1  1  0  0  0  0
 34 11  1  0  0  0  0
 37 12  1  0  0  0  0
 42 16  1  0  0  0  0
 44 17  1  0  0  0  0
 46 19  1  0  0  0  0
 48 26  1  0  0  0  0
 49 29  1  0  0  0  0
M  END
