000-768-271.xyz
 OpenBabel07262113353D
CC(=O)Nc1ccc(cc1)n1c(C)cc(c1C)/C=C/1\C(=O)N=C(N(C1=O)C)S
 48 50  0  0  1  0  0  0  0  0999 V2000
    2.4708    0.0695    1.5529 C   0  0  0  0  0  0  0  0  0  0  0  0
    1.2510   -0.0000    2.3546 N   0  0  0  0  0  0  0  0  0  0  0  0
    0.0000   -0.0000    1.7758 C   0  0  0  0  0  0  0  0  0  0  0  0
    0.0000    0.0000    0.0000 S   0  0  0  0  0  0  0  0  0  0  0  0
   -1.1226    0.0025    2.4220 N   0  0  0  0  0  0  0  0  0  0  0  0
   -1.1649   -0.0251    3.8155 C   0  0  0  0  0  0  0  0  0  0  0  0
   -2.2316    0.1335    4.3908 O   0  0  0  0  0  0  0  0  0  0  0  0
    0.1262   -0.2075    4.5231 C   0  0  2  0  0  0  0  0  0  0  0  0
    0.2800   -0.2749    5.8925 C   0  0  0  0  0  0  0  0  0  0  0  0
   -0.6413   -0.5168    6.9508 C   0  0  0  0  0  0  0  0  0  0  0  0
   -0.4424   -0.0464    8.3020 C   0  0  0  0  0  0  0  0  0  0  0  0
   -1.4880   -0.4807    9.0707 C   0  0  0  0  0  0  0  0  0  0  0  0
   -1.8339   -0.2034   10.4948 C   0  0  0  0  0  0  0  0  0  0  0  0
   -2.3112   -1.2601    8.2415 N   0  0  0  0  0  0  0  0  0  0  0  0
   -1.8153   -1.2967    6.9633 C   0  0  0  0  0  0  0  0  0  0  0  0
   -2.3956   -2.1831    5.9223 C   0  0  0  0  0  0  0  0  0  0  0  0
   -3.5126   -1.8982    8.6611 C   0  0  0  0  0  0  0  0  0  0  0  0
   -3.4832   -2.9355    9.5979 C   0  0  0  0  0  0  0  0  0  0  0  0
   -4.6574   -3.5590   10.0171 C   0  0  0  0  0  0  0  0  0  0  0  0
   -5.8919   -3.1498    9.4808 C   0  0  0  0  0  0  0  0  0  0  0  0
   -7.1176   -3.7287    9.8438 N   0  0  0  0  0  0  0  0  0  0  0  0
   -7.3617   -4.7404   10.7513 C   0  0  0  0  0  0  0  0  0  0  0  0
   -8.8338   -5.0724   10.9297 C   0  0  0  0  0  0  0  0  0  0  0  0
   -6.4920   -5.3086   11.3823 O   0  0  0  0  0  0  0  0  0  0  0  0
   -5.9155   -2.1124    8.5302 C   0  0  0  0  0  0  0  0  0  0  0  0
   -4.7398   -1.4883    8.1278 C   0  0  0  0  0  0  0  0  0  0  0  0
    1.3885   -0.1012    3.7622 C   0  0  0  0  0  0  0  0  0  0  0  0
    2.5016   -0.1127    4.2594 O   0  0  0  0  0  0  0  0  0  0  0  0
    2.4770    0.9837    0.9417 H   0  0  0  0  0  0  0  0  0  0  0  0
    3.3145    0.0811    2.2514 H   0  0  0  0  0  0  0  0  0  0  0  0
    2.5502   -0.8053    0.8902 H   0  0  0  0  0  0  0  0  0  0  0  0
   -2.3147    0.0436   -0.2200 Au  0  0  0  0  0  0  0  0  0  0  0  0
    1.3116   -0.0979    6.2196 H   0  0  0  0  0  0  0  0  0  0  0  0
    0.3679    0.5984    8.6365 H   0  0  0  0  0  0  0  0  0  0  0  0
   -2.8451    0.2259   10.5913 H   0  0  0  0  0  0  0  0  0  0  0  0
   -1.8093   -1.1088   11.1231 H   0  0  0  0  0  0  0  0  0  0  0  0
   -1.1155    0.5156   10.9118 H   0  0  0  0  0  0  0  0  0  0  0  0
   -3.1504   -1.6508    5.3228 H   0  0  0  0  0  0  0  0  0  0  0  0
   -1.6096   -2.4925    5.2191 H   0  0  0  0  0  0  0  0  0  0  0  0
   -2.8486   -3.0787    6.3728 H   0  0  0  0  0  0  0  0  0  0  0  0
   -2.5233   -3.2679    9.9971 H   0  0  0  0  0  0  0  0  0  0  0  0
   -4.6366   -4.3653   10.7451 H   0  0  0  0  0  0  0  0  0  0  0  0
   -7.9288   -3.3386    9.3799 H   0  0  0  0  0  0  0  0  0  0  0  0
   -9.2031   -4.5759   11.8418 H   0  0  0  0  0  0  0  0  0  0  0  0
   -9.4638   -4.7627   10.0827 H   0  0  0  0  0  0  0  0  0  0  0  0
   -8.9292   -6.1556   11.0818 H   0  0  0  0  0  0  0  0  0  0  0  0
   -6.8698   -1.7867    8.1068 H   0  0  0  0  0  0  0  0  0  0  0  0
   -4.7638   -0.6773    7.3978 H   0  0  0  0  0  0  0  0  0  0  0  0
  1 30  1  0  0  0  0
  1  2  1  0  0  0  0
  2 27  1  0  0  0  0
  3  2  1  0  0  0  0
  3  5  2  0  0  0  0
  4  3  1  0  0  0  0
  5  6  2  0  0  0  0
  6  7  2  0  0  0  0
  6  8  1  0  0  0  0
  8  9  1  1  0  0  0
  9 33  1  0  0  0  0
  9 10  1  0  0  0  0
 10 15  2  0  0  0  0
 10 11  1  0  0  0  0
 11 34  1  0  0  0  0
 11 12  2  0  0  0  0
 12 13  1  0  0  0  0
 13 35  1  0  0  0  0
 13 37  1  0  0  0  0
 13 36  1  0  0  0  0
 14 17  1  0  0  0  0
 14 12  1  0  0  0  0
 15 14  1  0  0  0  0
 16 40  1  0  0  0  0
 16 15  1  0  0  0  0
 17 18  2  0  0  0  0
 18 41  1  0  0  0  0
 18 19  1  0  0  0  0
 19 42  1  0  0  0  0
 20 21  1  0  0  0  0
 20 19  2  0  0  0  0
 21 22  1  0  0  0  0
 22 23  1  0  0  0  0
 22 24  2  0  0  0  0
 23 46  1  0  0  0  0
 23 44  1  0  0  0  0
 25 20  1  0  0  0  0
 26 25  2  0  0  0  0
 26 17  1  0  0  0  0
 27 28  2  0  0  0  0
 27  8  1  0  0  0  0
 29  1  1  0  0  0  0
 31  1  1  0  0  0  0
 32  4  1  0  0  0  0
 38 16  1  0  0  0  0
 39 16  1  0  0  0  0
 43 21  1  0  0  0  0
 45 23  1  0  0  0  0
 47 25  1  0  0  0  0
 48 26  1  0  0  0  0
M  RAD  2   8   2   9   2
M  END
