000-747-704.xyz
 OpenBabel07262113343D
SC1=NC(=O)/C(=C\c2ccc(cc2)C)/C(=N1)O
 27 28  0  0  0  0  0  0  0  0999 V2000
    1.8483    0.0057   11.0720 C   0  0  0  0  0  0  0  0  0  0  0  0
    1.2354    0.0062    9.6983 C   0  0  0  0  0  0  0  0  0  0  0  0
    2.0500    0.0022    8.5518 C   0  0  0  0  0  0  0  0  0  0  0  0
    1.5139    0.0012    7.2705 C   0  0  0  0  0  0  0  0  0  0  0  0
    0.1098    0.0042    7.0823 C   0  0  0  0  0  0  0  0  0  0  0  0
   -0.6032    0.0034    5.8220 C   0  0  0  0  0  0  0  0  0  0  0  0
   -0.2868    0.0013    4.4810 C   0  0  0  0  0  0  0  0  0  0  0  0
   -1.4081    0.0008    3.5425 C   0  0  0  0  0  0  0  0  0  0  0  0
   -2.6468    0.0012    4.0436 O   0  0  0  0  0  0  0  0  0  0  0  0
   -1.2848   -0.0000    2.2508 N   0  0  0  0  0  0  0  0  0  0  0  0
    0.0000   -0.0000    1.7609 C   0  0  0  0  0  0  0  0  0  0  0  0
    0.0000    0.0000    0.0000 S   0  0  0  0  0  0  0  0  0  0  0  0
    1.1079   -0.0000    2.4430 N   0  0  0  0  0  0  0  0  0  0  0  0
    1.0687   -0.0001    3.8298 C   0  0  0  0  0  0  0  0  0  0  0  0
    2.1114   -0.0011    4.4671 O   0  0  0  0  0  0  0  0  0  0  0  0
   -0.7060    0.0083    8.2424 C   0  0  0  0  0  0  0  0  0  0  0  0
   -0.1573    0.0094    9.5180 C   0  0  0  0  0  0  0  0  0  0  0  0
    2.5036    0.8815   11.2109 H   0  0  0  0  0  0  0  0  0  0  0  0
    1.0832    0.0220   11.8611 H   0  0  0  0  0  0  0  0  0  0  0  0
    2.4761   -0.8884   11.2218 H   0  0  0  0  0  0  0  0  0  0  0  0
    3.1370   -0.0001    8.6705 H   0  0  0  0  0  0  0  0  0  0  0  0
    2.1525   -0.0017    6.3900 H   0  0  0  0  0  0  0  0  0  0  0  0
   -1.6841    0.0047    5.9871 H   0  0  0  0  0  0  0  0  0  0  0  0
   -3.2451    0.0009    3.2763 H   0  0  0  0  0  0  0  0  0  0  0  0
    2.2850    0.0020   -0.3457 Au  0  0  0  0  0  0  0  0  0  0  0  0
   -1.7928    0.0108    8.1265 H   0  0  0  0  0  0  0  0  0  0  0  0
   -0.8146    0.0128   10.3910 H   0  0  0  0  0  0  0  0  0  0  0  0
  1 18  1  0  0  0  0
  1 20  1  0  0  0  0
  1 19  1  0  0  0  0
  2  1  1  0  0  0  0
  3 21  1  0  0  0  0
  3  2  2  0  0  0  0
  4  3  1  0  0  0  0
  5  4  2  0  0  0  0
  5 16  1  0  0  0  0
  6 23  1  0  0  0  0
  6  5  1  0  0  0  0
  7  6  2  0  0  0  0
  8  9  1  0  0  0  0
  8  7  1  0  0  0  0
 10  8  2  0  0  0  0
 11 10  2  0  0  0  0
 11 13  2  0  0  0  0
 12 11  1  0  0  0  0
 13 14  2  0  0  0  0
 14 15  2  0  0  0  0
 14  7  1  0  0  0  0
 16 17  2  0  0  0  0
 17  2  1  0  0  0  0
 17 27  1  0  0  0  0
 22  4  1  0  0  0  0
 24  9  1  0  0  0  0
 25 12  1  0  0  0  0
 26 16  1  0  0  0  0
M  END
