000-763-479.xyz
 OpenBabel07262113353D
Cc1cc(C)cc(c1)N1C(=NC(=O)/C(=C/c2ccc[nH]2)/C1=O)S
 38 40  0  0  0  0  0  0  0  0999 V2000
   -4.2478    3.2302    0.3330 C   0  0  0  0  0  0  0  0  0  0  0  0
   -3.9666    1.8515    0.8711 C   0  0  0  0  0  0  0  0  0  0  0  0
   -4.8877    0.8091    0.7276 C   0  0  0  0  0  0  0  0  0  0  0  0
   -4.6362   -0.4840    1.2248 C   0  0  0  0  0  0  0  0  0  0  0  0
   -5.6821   -1.5646    1.1226 C   0  0  0  0  0  0  0  0  0  0  0  0
   -3.4070   -0.7294    1.8525 C   0  0  0  0  0  0  0  0  0  0  0  0
   -2.4649    0.3019    1.9747 C   0  0  0  0  0  0  0  0  0  0  0  0
   -2.7472    1.5830    1.5145 C   0  0  0  0  0  0  0  0  0  0  0  0
   -1.1747    0.0305    2.5420 N   0  0  0  0  0  0  0  0  0  0  0  0
   -0.0000    0.0000    1.7804 C   0  0  0  0  0  0  0  0  0  0  0  0
    0.0000    0.0000    0.0000 S   0  0  0  0  0  0  0  0  0  0  0  0
    1.1818    0.0000    2.2776 N   0  0  0  0  0  0  0  0  0  0  0  0
    1.4033    0.0339    3.6538 C   0  0  0  0  0  0  0  0  0  0  0  0
    2.5215    0.1899    4.1071 O   0  0  0  0  0  0  0  0  0  0  0  0
    0.2100   -0.1834    4.5301 C   0  0  0  0  0  0  0  0  0  0  0  0
    0.4821   -0.3578    5.8765 C   0  0  0  0  0  0  0  0  0  0  0  0
   -0.3023   -0.5655    7.0313 C   0  0  0  0  0  0  0  0  0  0  0  0
    0.1748   -0.7530    8.3511 C   0  0  0  0  0  0  0  0  0  0  0  0
   -0.9369   -0.9228    9.1856 C   0  0  0  0  0  0  0  0  0  0  0  0
   -2.0747   -0.8345    8.3670 C   0  0  0  0  0  0  0  0  0  0  0  0
   -1.6834   -0.6246    7.0967 N   0  0  0  0  0  0  0  0  0  0  0  0
   -1.1214   -0.1470    3.9440 C   0  0  0  0  0  0  0  0  0  0  0  0
   -2.1916   -0.2262    4.5501 O   0  0  0  0  0  0  0  0  0  0  0  0
   -4.1442    3.9923    1.1220 H   0  0  0  0  0  0  0  0  0  0  0  0
   -3.5338    3.4929   -0.4649 H   0  0  0  0  0  0  0  0  0  0  0  0
   -5.2630    3.3042   -0.0822 H   0  0  0  0  0  0  0  0  0  0  0  0
   -5.8387    1.0058    0.2247 H   0  0  0  0  0  0  0  0  0  0  0  0
   -6.4141   -1.4741    1.9434 H   0  0  0  0  0  0  0  0  0  0  0  0
   -6.2435   -1.4956    0.1785 H   0  0  0  0  0  0  0  0  0  0  0  0
   -5.2368   -2.5680    1.1894 H   0  0  0  0  0  0  0  0  0  0  0  0
   -3.1748   -1.7153    2.2578 H   0  0  0  0  0  0  0  0  0  0  0  0
   -1.9934    2.3654    1.6197 H   0  0  0  0  0  0  0  0  0  0  0  0
   -1.9982   -0.9480   -0.6941 Au  0  0  0  0  0  0  0  0  0  0  0  0
    1.5577   -0.3229    6.0807 H   0  0  0  0  0  0  0  0  0  0  0  0
    1.2254   -0.7607    8.6348 H   0  0  0  0  0  0  0  0  0  0  0  0
   -0.9382   -1.0900   10.2603 H   0  0  0  0  0  0  0  0  0  0  0  0
   -3.1285   -0.9080    8.6298 H   0  0  0  0  0  0  0  0  0  0  0  0
   -2.2349   -0.4972    6.2346 H   0  0  0  0  0  0  0  0  0  0  0  0
  1  2  1  0  0  0  0
  1 24  1  0  0  0  0
  2  8  1  0  0  0  0
  3  2  2  0  0  0  0
  3  4  1  0  0  0  0
  4  6  2  0  0  0  0
  5 30  1  0  0  0  0
  5  4  1  0  0  0  0
  5 28  1  0  0  0  0
  6  7  1  0  0  0  0
  6 31  1  0  0  0  0
  7  9  1  0  0  0  0
  8 32  1  0  0  0  0
  8  7  2  0  0  0  0
  9 22  1  0  0  0  0
 10 12  2  0  0  0  0
 10  9  1  0  0  0  0
 11 10  1  0  0  0  0
 12 13  2  0  0  0  0
 13 14  2  0  0  0  0
 13 15  1  0  0  0  0
 15 16  2  0  0  0  0
 16 34  1  0  0  0  0
 16 17  1  0  0  0  0
 17 21  1  0  0  0  0
 17 18  2  0  0  0  0
 18 35  1  0  0  0  0
 18 19  1  0  0  0  0
 19 36  1  0  0  0  0
 20 37  1  0  0  0  0
 20 19  2  0  0  0  0
 21 20  1  0  0  0  0
 22 15  1  0  0  0  0
 22 23  2  0  0  0  0
 25  1  1  0  0  0  0
 26  1  1  0  0  0  0
 27  3  1  0  0  0  0
 29  5  1  0  0  0  0
 33 11  1  0  0  0  0
 38 21  1  0  0  0  0
M  END
