000-755-413.xyz
 OpenBabel07262113353D
Brc1ccc(cc1)N1C(=NC(=O)/C(=C/c2ccc[nH]2)/C1=O)S
 32 34  0  0  0  0  0  0  0  0999 V2000
    0.0000    0.0000    0.0000 S   0  0  0  0  0  0  0  0  0  0  0  0
   -0.0000    0.0000    1.7724 C   0  0  0  0  0  0  0  0  0  0  0  0
   -1.1050   -0.0001    2.4423 N   0  0  0  0  0  0  0  0  0  0  0  0
   -1.1016   -0.0007    3.8348 C   0  0  0  0  0  0  0  0  0  0  0  0
   -2.1514   -0.0005    4.4556 O   0  0  0  0  0  0  0  0  0  0  0  0
    0.2284   -0.0019    4.5275 C   0  0  0  0  0  0  0  0  0  0  0  0
    0.1792   -0.0040    5.9033 C   0  0  0  0  0  0  0  0  0  0  0  0
    1.1354   -0.0062    6.9499 C   0  0  0  0  0  0  0  0  0  0  0  0
    2.5433   -0.0065    7.0484 C   0  0  0  0  0  0  0  0  0  0  0  0
    2.8814   -0.0096    8.4122 C   0  0  0  0  0  0  0  0  0  0  0  0
    1.6892   -0.0112    9.1404 C   0  0  0  0  0  0  0  0  0  0  0  0
    0.6601   -0.0091    8.2640 N   0  0  0  0  0  0  0  0  0  0  0  0
    1.4597   -0.0011    3.7416 C   0  0  0  0  0  0  0  0  0  0  0  0
    2.5998   -0.0014    4.1700 O   0  0  0  0  0  0  0  0  0  0  0  0
    1.2663   -0.0000    2.3327 N   0  0  0  0  0  0  0  0  0  0  0  0
    2.4415   -0.0000    1.5050 C   0  0  0  0  0  0  0  0  0  0  0  0
    3.0122    1.2120    1.1090 C   0  0  0  0  0  0  0  0  0  0  0  0
    4.1488    1.2174    0.3017 C   0  0  0  0  0  0  0  0  0  0  0  0
    4.7076   -0.0003   -0.0967 C   0  0  0  0  0  0  0  0  0  0  0  0
    6.2574   -0.0006   -1.2013 Br  0  0  0  0  0  0  0  0  0  0  0  0
    4.1494   -1.2179    0.3031 C   0  0  0  0  0  0  0  0  0  0  0  0
    3.0128   -1.2122    1.1103 C   0  0  0  0  0  0  0  0  0  0  0  0
   -2.3079   -0.0022   -0.2584 Au  0  0  0  0  0  0  0  0  0  0  0  0
   -0.8632   -0.0043    6.2486 H   0  0  0  0  0  0  0  0  0  0  0  0
    3.2039   -0.0046    6.1896 H   0  0  0  0  0  0  0  0  0  0  0  0
    3.8828   -0.0106    8.8368 H   0  0  0  0  0  0  0  0  0  0  0  0
    1.5208   -0.0137   10.2155 H   0  0  0  0  0  0  0  0  0  0  0  0
   -0.3222   -0.0098    8.5103 H   0  0  0  0  0  0  0  0  0  0  0  0
    2.5581    2.1502    1.4317 H   0  0  0  0  0  0  0  0  0  0  0  0
    4.5988    2.1585   -0.0161 H   0  0  0  0  0  0  0  0  0  0  0  0
    4.5999   -2.1591   -0.0138 H   0  0  0  0  0  0  0  0  0  0  0  0
    2.5592   -2.1502    1.4340 H   0  0  0  0  0  0  0  0  0  0  0  0
  1  2  1  0  0  0  0
  2 15  1  0  0  0  0
  2  3  2  0  0  0  0
  3  4  2  0  0  0  0
  4  5  2  0  0  0  0
  4  6  1  0  0  0  0
  6  7  2  0  0  0  0
  7 24  1  0  0  0  0
  7  8  1  0  0  0  0
  8  9  2  0  0  0  0
  8 12  1  0  0  0  0
  9 10  1  0  0  0  0
 10 26  1  0  0  0  0
 10 11  2  0  0  0  0
 11 27  1  0  0  0  0
 12 28  1  0  0  0  0
 12 11  1  0  0  0  0
 13 14  2  0  0  0  0
 13  6  1  0  0  0  0
 15 13  1  0  0  0  0
 16 15  1  0  0  0  0
 17 29  1  0  0  0  0
 17 16  2  0  0  0  0
 18 17  1  0  0  0  0
 19 18  2  0  0  0  0
 19 21  1  0  0  0  0
 20 19  1  0  0  0  0
 21 22  2  0  0  0  0
 22 32  1  0  0  0  0
 22 16  1  0  0  0  0
 23  1  1  0  0  0  0
 25  9  1  0  0  0  0
 30 18  1  0  0  0  0
 31 21  1  0  0  0  0
M  END
