000-837-666.xyz
 OpenBabel07262113373D
SC1=NC(=O)/C(=C/c2cc(n(c2C)c2ccccc2)c2ccccc2)/C(=N1)O
 45 48  0  0  0  0  0  0  0  0999 V2000
    0.4975    0.0454    8.8387 C   0  0  0  0  0  0  0  0  0  0  0  0
   -0.8730   -0.0155    8.2532 C   0  0  0  0  0  0  0  0  0  0  0  0
   -1.2865   -0.0143    6.8973 C   0  0  0  0  0  0  0  0  0  0  0  0
   -0.3218   -0.0114    5.8491 C   0  0  0  0  0  0  0  0  0  0  0  0
   -0.3203   -0.0057    4.4709 C   0  0  0  0  0  0  0  0  0  0  0  0
   -1.4263   -0.0022    3.5454 C   0  0  0  0  0  0  0  0  0  0  0  0
   -2.6808   -0.0002    4.0074 O   0  0  0  0  0  0  0  0  0  0  0  0
   -1.2843    0.0006    2.2503 N   0  0  0  0  0  0  0  0  0  0  0  0
   -0.0000   -0.0000    1.7655 C   0  0  0  0  0  0  0  0  0  0  0  0
    0.0000    0.0000    0.0000 S   0  0  0  0  0  0  0  0  0  0  0  0
    1.1111   -0.0000    2.4436 N   0  0  0  0  0  0  0  0  0  0  0  0
    1.0523   -0.0006    3.8301 C   0  0  0  0  0  0  0  0  0  0  0  0
    2.0670    0.0022    4.5091 O   0  0  0  0  0  0  0  0  0  0  0  0
   -2.7262   -0.0210    6.9133 C   0  0  0  0  0  0  0  0  0  0  0  0
   -3.1466   -0.0341    8.2200 C   0  0  0  0  0  0  0  0  0  0  0  0
   -4.5189   -0.0732    8.7425 C   0  0  0  0  0  0  0  0  0  0  0  0
   -4.8857   -0.8564    9.8535 C   0  0  0  0  0  0  0  0  0  0  0  0
   -6.2084   -0.8880   10.2951 C   0  0  0  0  0  0  0  0  0  0  0  0
   -7.1933   -0.1476    9.6350 C   0  0  0  0  0  0  0  0  0  0  0  0
   -6.8438    0.6265    8.5249 C   0  0  0  0  0  0  0  0  0  0  0  0
   -5.5203    0.6675    8.0862 C   0  0  0  0  0  0  0  0  0  0  0  0
   -1.9951   -0.0372    9.0335 N   0  0  0  0  0  0  0  0  0  0  0  0
   -1.9952    0.0725   10.4566 C   0  0  0  0  0  0  0  0  0  0  0  0
   -2.5727    1.1935   11.0618 C   0  0  0  0  0  0  0  0  0  0  0  0
   -2.5908    1.2931   12.4535 C   0  0  0  0  0  0  0  0  0  0  0  0
   -2.0265    0.2836   13.2391 C   0  0  0  0  0  0  0  0  0  0  0  0
   -1.4458   -0.8319   12.6289 C   0  0  0  0  0  0  0  0  0  0  0  0
   -1.4344   -0.9433   11.2371 C   0  0  0  0  0  0  0  0  0  0  0  0
    1.2265    0.3785    8.0901 H   0  0  0  0  0  0  0  0  0  0  0  0
    0.5331    0.7423    9.6896 H   0  0  0  0  0  0  0  0  0  0  0  0
    0.8304   -0.9379    9.2107 H   0  0  0  0  0  0  0  0  0  0  0  0
    0.7149   -0.0163    6.2043 H   0  0  0  0  0  0  0  0  0  0  0  0
   -3.2461   -0.0002    3.2139 H   0  0  0  0  0  0  0  0  0  0  0  0
    2.2858   -0.0011   -0.3380 Au  0  0  0  0  0  0  0  0  0  0  0  0
   -3.3696   -0.0570    6.0451 H   0  0  0  0  0  0  0  0  0  0  0  0
   -4.1353   -1.4570   10.3676 H   0  0  0  0  0  0  0  0  0  0  0  0
   -6.4730   -1.5039   11.1579 H   0  0  0  0  0  0  0  0  0  0  0  0
   -8.2282   -0.1747    9.9837 H   0  0  0  0  0  0  0  0  0  0  0  0
   -7.6049    1.2113    8.0028 H   0  0  0  0  0  0  0  0  0  0  0  0
   -5.2453    1.2914    7.2333 H   0  0  0  0  0  0  0  0  0  0  0  0
   -3.0108    1.9731   10.4371 H   0  0  0  0  0  0  0  0  0  0  0  0
   -3.0459    2.1662   12.9262 H   0  0  0  0  0  0  0  0  0  0  0  0
   -2.0404    0.3657   14.3281 H   0  0  0  0  0  0  0  0  0  0  0  0
   -1.0078   -1.6254   13.2384 H   0  0  0  0  0  0  0  0  0  0  0  0
   -1.0071   -1.8216   10.7505 H   0  0  0  0  0  0  0  0  0  0  0  0
  1 31  1  0  0  0  0
  1 30  1  0  0  0  0
  2  1  1  0  0  0  0
  2 22  1  0  0  0  0
  3 14  1  0  0  0  0
  3  2  2  0  0  0  0
  4 32  1  0  0  0  0
  4  3  1  0  0  0  0
  5  4  2  0  0  0  0
  6  7  1  0  0  0  0
  6  5  1  0  0  0  0
  8  6  2  0  0  0  0
  9  8  2  0  0  0  0
  9 11  2  0  0  0  0
 10  9  1  0  0  0  0
 11 12  2  0  0  0  0
 12  5  1  0  0  0  0
 12 13  2  0  0  0  0
 14 15  2  0  0  0  0
 15 16  1  0  0  0  0
 15 22  1  0  0  0  0
 16 17  2  0  0  0  0
 17 18  1  0  0  0  0
 17 36  1  0  0  0  0
 18 37  1  0  0  0  0
 19 38  1  0  0  0  0
 19 18  2  0  0  0  0
 20 19  1  0  0  0  0
 21 20  2  0  0  0  0
 21 16  1  0  0  0  0
 22 23  1  0  0  0  0
 23 24  2  0  0  0  0
 23 28  1  0  0  0  0
 24 25  1  0  0  0  0
 25 42  1  0  0  0  0
 25 26  2  0  0  0  0
 26 43  1  0  0  0  0
 27 44  1  0  0  0  0
 27 26  1  0  0  0  0
 28 27  2  0  0  0  0
 29  1  1  0  0  0  0
 33  7  1  0  0  0  0
 34 10  1  0  0  0  0
 35 14  1  0  0  0  0
 39 20  1  0  0  0  0
 40 21  1  0  0  0  0
 41 24  1  0  0  0  0
 45 28  1  0  0  0  0
M  END
