000-717-421.xyz
 OpenBabel07262113333D
Cc1cccc(c1)N1C(=NC(=O)/C(=C/C=C/c2ccco2)/C1=O)S
 38 40  0  0  0  0  0  0  0  0999 V2000
    4.6774   -2.5668   -0.2183 C   0  0  0  0  0  0  0  0  0  0  0  0
    4.1167   -1.2499    0.2546 C   0  0  0  0  0  0  0  0  0  0  0  0
    4.6964   -0.0293   -0.1195 C   0  0  0  0  0  0  0  0  0  0  0  0
    4.1615    1.1885    0.3113 C   0  0  0  0  0  0  0  0  0  0  0  0
    3.0305    1.2095    1.1250 C   0  0  0  0  0  0  0  0  0  0  0  0
    2.4432   -0.0026    1.4965 C   0  0  0  0  0  0  0  0  0  0  0  0
    2.9818   -1.2184    1.0762 C   0  0  0  0  0  0  0  0  0  0  0  0
    1.2688    0.0000    2.3309 N   0  0  0  0  0  0  0  0  0  0  0  0
    0.0000   -0.0000    1.7724 C   0  0  0  0  0  0  0  0  0  0  0  0
    0.0000    0.0000    0.0000 S   0  0  0  0  0  0  0  0  0  0  0  0
   -1.1073    0.0009    2.4397 N   0  0  0  0  0  0  0  0  0  0  0  0
   -1.1075    0.0027    3.8326 C   0  0  0  0  0  0  0  0  0  0  0  0
   -2.1548    0.0019    4.4551 O   0  0  0  0  0  0  0  0  0  0  0  0
    0.2207    0.0065    4.5237 C   0  0  0  0  0  0  0  0  0  0  0  0
    0.2165    0.0124    5.8963 C   0  0  0  0  0  0  0  0  0  0  0  0
    1.3276    0.0177    6.7912 C   0  0  0  0  0  0  0  0  0  0  0  0
    1.1338    0.0249    8.1424 C   0  0  0  0  0  0  0  0  0  0  0  0
    2.1743    0.0319    9.1224 C   0  0  0  0  0  0  0  0  0  0  0  0
    3.5575    0.0339    9.0593 C   0  0  0  0  0  0  0  0  0  0  0  0
    4.0266    0.0424   10.4021 C   0  0  0  0  0  0  0  0  0  0  0  0
    2.9054    0.0450   11.1948 C   0  0  0  0  0  0  0  0  0  0  0  0
    1.7905    0.0387   10.4382 O   0  0  0  0  0  0  0  0  0  0  0  0
    1.4621    0.0034    3.7355 C   0  0  0  0  0  0  0  0  0  0  0  0
    2.5974    0.0031    4.1760 O   0  0  0  0  0  0  0  0  0  0  0  0
    4.8050   -3.2708    0.6192 H   0  0  0  0  0  0  0  0  0  0  0  0
    3.9991   -3.0463   -0.9442 H   0  0  0  0  0  0  0  0  0  0  0  0
    5.6537   -2.4374   -0.7074 H   0  0  0  0  0  0  0  0  0  0  0  0
    5.5836   -0.0329   -0.7580 H   0  0  0  0  0  0  0  0  0  0  0  0
    4.6321    2.1270    0.0102 H   0  0  0  0  0  0  0  0  0  0  0  0
    2.5959    2.1483    1.4714 H   0  0  0  0  0  0  0  0  0  0  0  0
    2.5005   -2.1469    1.3911 H   0  0  0  0  0  0  0  0  0  0  0  0
   -2.3082    0.0079   -0.2562 Au  0  0  0  0  0  0  0  0  0  0  0  0
   -0.7867    0.0136    6.3380 H   0  0  0  0  0  0  0  0  0  0  0  0
    2.3315    0.0163    6.3654 H   0  0  0  0  0  0  0  0  0  0  0  0
    0.1142    0.0260    8.5416 H   0  0  0  0  0  0  0  0  0  0  0  0
    4.1533    0.0299    8.1496 H   0  0  0  0  0  0  0  0  0  0  0  0
    5.0597    0.0463   10.7420 H   0  0  0  0  0  0  0  0  0  0  0  0
    2.7573    0.0510   12.2716 H   0  0  0  0  0  0  0  0  0  0  0  0
  1  2  1  0  0  0  0
  1 25  1  0  0  0  0
  2  7  1  0  0  0  0
  3  2  2  0  0  0  0
  3  4  1  0  0  0  0
  4  5  2  0  0  0  0
  5 30  1  0  0  0  0
  5  6  1  0  0  0  0
  6  8  1  0  0  0  0
  7 31  1  0  0  0  0
  7  6  2  0  0  0  0
  8 23  1  0  0  0  0
  9  8  1  0  0  0  0
  9 11  2  0  0  0  0
 10  9  1  0  0  0  0
 11 12  2  0  0  0  0
 12 13  2  0  0  0  0
 12 14  1  0  0  0  0
 14 15  2  0  0  0  0
 15 33  1  0  0  0  0
 15 16  1  0  0  0  0
 16 17  2  0  0  0  0
 17 35  1  0  0  0  0
 17 18  1  0  0  0  0
 18 22  1  0  0  0  0
 19 18  2  0  0  0  0
 19 20  1  0  0  0  0
 20 37  1  0  0  0  0
 20 21  2  0  0  0  0
 21 38  1  0  0  0  0
 22 21  1  0  0  0  0
 23 24  2  0  0  0  0
 23 14  1  0  0  0  0
 26  1  1  0  0  0  0
 27  1  1  0  0  0  0
 28  3  1  0  0  0  0
 29  4  1  0  0  0  0
 32 10  1  0  0  0  0
 34 16  1  0  0  0  0
 36 19  1  0  0  0  0
M  END
