000-876-022.xyz
 OpenBabel07262113383D
OC(=O)c1ccc2c(c1)nc(n(c2=O)c1ccccc1)S
 31 33  0  0  1  0  0  0  0  0999 V2000
   -3.4351    0.4324    8.0034 O   0  0  0  0  0  0  0  0  0  0  0  0
   -3.4732    0.0058    6.7213 C   0  0  0  0  0  0  0  0  0  0  0  0
   -4.5103   -0.3407    6.2228 O   0  0  0  0  0  0  0  0  0  0  0  0
   -2.1610    0.0064    5.9832 C   0  0  0  0  0  0  0  0  0  0  0  0
   -0.9147   -0.0096    6.6507 C   0  0  0  0  0  0  0  0  0  0  0  0
    0.2635   -0.0149    5.9194 C   0  0  0  0  0  0  0  0  0  0  0  0
    0.2186   -0.0044    4.5167 C   0  0  2  0  0  0  0  0  0  0  0  0
   -1.0217   -0.0026    3.8346 C   0  0  0  0  0  0  0  0  0  0  0  0
   -2.2095   -0.0065    4.5931 C   0  0  0  0  0  0  0  0  0  0  0  0
   -1.0988   -0.0003    2.4600 N   0  0  0  0  0  0  0  0  0  0  0  0
    0.0000    0.0000    1.7734 C   0  0  0  0  0  0  0  0  0  0  0  0
    1.2662    0.0000    2.3402 N   0  0  0  0  0  0  0  0  0  0  0  0
    1.4681   -0.0031    3.7445 C   0  0  0  0  0  0  0  0  0  0  0  0
    2.5884   -0.0043    4.2109 O   0  0  0  0  0  0  0  0  0  0  0  0
    2.4411    0.0013    1.5056 C   0  0  0  0  0  0  0  0  0  0  0  0
    3.0110   -1.2131    1.1160 C   0  0  0  0  0  0  0  0  0  0  0  0
    4.1457   -1.2084    0.3043 C   0  0  0  0  0  0  0  0  0  0  0  0
    4.7067    0.0040   -0.1080 C   0  0  0  0  0  0  0  0  0  0  0  0
    4.1354    1.2151    0.2936 C   0  0  0  0  0  0  0  0  0  0  0  0
    3.0008    1.2171    1.1056 C   0  0  0  0  0  0  0  0  0  0  0  0
    0.0000    0.0000    0.0000 S   0  0  0  0  0  0  0  0  0  0  0  0
   -2.5635    0.7970    8.2110 H   0  0  0  0  0  0  0  0  0  0  0  0
   -0.8637   -0.0554    7.7417 H   0  0  0  0  0  0  0  0  0  0  0  0
    1.2407   -0.0353    6.4048 H   0  0  0  0  0  0  0  0  0  0  0  0
   -3.1729   -0.0166    4.0836 H   0  0  0  0  0  0  0  0  0  0  0  0
    2.5582   -2.1489    1.4477 H   0  0  0  0  0  0  0  0  0  0  0  0
    4.5938   -2.1547   -0.0063 H   0  0  0  0  0  0  0  0  0  0  0  0
    5.5951    0.0049   -0.7437 H   0  0  0  0  0  0  0  0  0  0  0  0
    4.5755    2.1624   -0.0252 H   0  0  0  0  0  0  0  0  0  0  0  0
    2.5402    2.1519    1.4291 H   0  0  0  0  0  0  0  0  0  0  0  0
   -2.2929   -0.0146   -0.3220 Au  0  0  0  0  0  0  0  0  0  0  0  0
  1 22  1  0  0  0  0
  2  1  1  0  0  0  0
  3  2  2  0  0  0  0
  4  5  1  0  0  0  0
  4  2  1  0  0  0  0
  5 23  1  0  0  0  0
  6 24  1  0  0  0  0
  6  5  2  0  0  0  0
  7 13  1  6  0  0  0
  7  6  1  0  0  0  0
  8  7  1  0  0  0  0
  8  9  1  0  0  0  0
  9  4  2  0  0  0  0
 10  8  2  0  0  0  0
 11 12  1  0  0  0  0
 11 10  2  0  0  0  0
 12 13  1  0  0  0  0
 13 14  2  0  0  0  0
 15 12  1  0  0  0  0
 16 26  1  0  0  0  0
 16 15  1  0  0  0  0
 17 16  2  0  0  0  0
 18 19  2  0  0  0  0
 18 17  1  0  0  0  0
 19 20  1  0  0  0  0
 20 30  1  0  0  0  0
 20 15  2  0  0  0  0
 21 11  1  0  0  0  0
 25  9  1  0  0  0  0
 27 17  1  0  0  0  0
 28 18  1  0  0  0  0
 29 19  1  0  0  0  0
 31 21  1  0  0  0  0
M  RAD  1   7   2
M  END
