000-761-491.xyz
 OpenBabel07262113353D
Fc1ccc(cc1)CN1C(=NC(=O)/C(=C/c2cn(c3c2cccc3)C)/C1=O)S
 44 47  0  0  1  0  0  0  0  0999 V2000
   -1.9920   -1.9395   10.1917 C   0  0  0  0  0  0  0  0  0  0  0  0
   -1.8228   -1.8501    8.7587 N   0  0  0  0  0  0  0  0  0  0  0  0
   -0.8060   -1.2344    8.1008 C   0  0  0  0  0  0  0  0  0  0  0  0
   -0.9843   -1.3167    6.7159 C   0  0  0  0  0  0  0  0  0  0  0  0
   -0.0221   -0.7550    5.8196 C   0  0  0  0  0  0  0  0  0  0  0  0
   -0.0945   -0.3817    4.5018 C   0  0  2  0  0  0  0  0  0  0  0  0
    1.1904   -0.0822    3.8015 C   0  0  0  0  0  0  0  0  0  0  0  0
    2.2514    0.0276    4.3899 O   0  0  0  0  0  0  0  0  0  0  0  0
    1.1323    0.0000    2.4103 N   0  0  0  0  0  0  0  0  0  0  0  0
   -0.0000   -0.0000    1.7786 C   0  0  0  0  0  0  0  0  0  0  0  0
    0.0000    0.0000    0.0000 S   0  0  0  0  0  0  0  0  0  0  0  0
   -1.2379   -0.0043    2.3855 N   0  0  0  0  0  0  0  0  0  0  0  0
   -2.5144    0.0976    1.6604 C   0  0  0  0  0  0  0  0  0  0  0  0
   -3.2815   -1.2049    1.6875 C   0  0  0  0  0  0  0  0  0  0  0  0
   -2.7276   -2.3692    1.1356 C   0  0  0  0  0  0  0  0  0  0  0  0
   -3.3942   -3.5921    1.2298 C   0  0  0  0  0  0  0  0  0  0  0  0
   -4.6288   -3.6336    1.8737 C   0  0  0  0  0  0  0  0  0  0  0  0
   -5.2622   -4.8111    2.0027 F   0  0  0  0  0  0  0  0  0  0  0  0
   -5.2131   -2.4915    2.4121 C   0  0  0  0  0  0  0  0  0  0  0  0
   -4.5259   -1.2810    2.3237 C   0  0  0  0  0  0  0  0  0  0  0  0
   -1.3520   -0.1473    3.7931 C   0  0  0  0  0  0  0  0  0  0  0  0
   -2.4506   -0.0343    4.3072 O   0  0  0  0  0  0  0  0  0  0  0  0
   -2.1933   -2.1087    6.5220 C   0  0  0  0  0  0  0  0  0  0  0  0
   -2.8493   -2.6700    5.4132 C   0  0  0  0  0  0  0  0  0  0  0  0
   -3.9680   -3.4744    5.6242 C   0  0  0  0  0  0  0  0  0  0  0  0
   -4.4547   -3.7327    6.9195 C   0  0  0  0  0  0  0  0  0  0  0  0
   -3.8131   -3.2112    8.0412 C   0  0  0  0  0  0  0  0  0  0  0  0
   -2.6830   -2.4186    7.8206 C   0  0  0  0  0  0  0  0  0  0  0  0
   -1.9916   -2.9915   10.5196 H   0  0  0  0  0  0  0  0  0  0  0  0
   -2.9430   -1.4778   10.5018 H   0  0  0  0  0  0  0  0  0  0  0  0
   -1.1664   -1.4147   10.6893 H   0  0  0  0  0  0  0  0  0  0  0  0
   -0.0069   -0.7356    8.6478 H   0  0  0  0  0  0  0  0  0  0  0  0
    0.9833   -0.6232    6.2381 H   0  0  0  0  0  0  0  0  0  0  0  0
    2.3209    0.0488   -0.2017 Au  0  0  0  0  0  0  0  0  0  0  0  0
   -3.1065    0.8894    2.1364 H   0  0  0  0  0  0  0  0  0  0  0  0
   -2.2885    0.4113    0.6328 H   0  0  0  0  0  0  0  0  0  0  0  0
   -1.7567   -2.3221    0.6360 H   0  0  0  0  0  0  0  0  0  0  0  0
   -2.9715   -4.5100    0.8180 H   0  0  0  0  0  0  0  0  0  0  0  0
   -6.1764   -2.5675    2.9186 H   0  0  0  0  0  0  0  0  0  0  0  0
   -4.9459   -0.3876    2.7890 H   0  0  0  0  0  0  0  0  0  0  0  0
   -2.4975   -2.4957    4.3997 H   0  0  0  0  0  0  0  0  0  0  0  0
   -4.4759   -3.9138    4.7645 H   0  0  0  0  0  0  0  0  0  0  0  0
   -5.3384   -4.3618    7.0481 H   0  0  0  0  0  0  0  0  0  0  0  0
   -4.1709   -3.4286    9.0492 H   0  0  0  0  0  0  0  0  0  0  0  0
  1 30  1  0  0  0  0
  1 29  1  0  0  0  0
  1 31  1  0  0  0  0
  2  1  1  0  0  0  0
  3 32  1  0  0  0  0
  3  2  1  0  0  0  0
  4  3  2  0  0  0  0
  5 33  1  0  0  0  0
  5  4  1  0  0  0  0
  6  5  1  1  0  0  0
  7  8  2  0  0  0  0
  7  6  1  0  0  0  0
  9  7  2  0  0  0  0
 10 12  1  0  0  0  0
 10  9  2  0  0  0  0
 11 10  1  0  0  0  0
 12 21  1  0  0  0  0
 13 14  1  0  0  0  0
 13 35  1  0  0  0  0
 13 12  1  0  0  0  0
 14 20  2  0  0  0  0
 15 16  2  0  0  0  0
 15 14  1  0  0  0  0
 16 17  1  0  0  0  0
 17 18  1  0  0  0  0
 17 19  2  0  0  0  0
 19 39  1  0  0  0  0
 20 19  1  0  0  0  0
 20 40  1  0  0  0  0
 21 22  2  0  0  0  0
 21  6  1  0  0  0  0
 23  4  1  0  0  0  0
 23 28  2  0  0  0  0
 24 25  2  0  0  0  0
 24 23  1  0  0  0  0
 25 26  1  0  0  0  0
 26 43  1  0  0  0  0
 26 27  2  0  0  0  0
 27 44  1  0  0  0  0
 28 27  1  0  0  0  0
 28  2  1  0  0  0  0
 34 11  1  0  0  0  0
 36 13  1  0  0  0  0
 37 15  1  0  0  0  0
 38 16  1  0  0  0  0
 41 24  1  0  0  0  0
 42 25  1  0  0  0  0
M  RAD  2   5   2   6   2
M  END
