000-477-796.xyz
 OpenBabel07262113333D
SC1=NC(=O)/C(=C/c2ccc(cc2)O)/C(=N1)O
 25 26  0  0  0  0  0  0  0  0999 V2000
   -2.6923    0.0099    3.9948 O   0  0  0  0  0  0  0  0  0  0  0  0
   -1.4375   -0.0356    3.5369 C   0  0  0  0  0  0  0  0  0  0  0  0
   -1.2877    0.0093    2.2470 N   0  0  0  0  0  0  0  0  0  0  0  0
    0.0000    0.0000    1.7616 C   0  0  0  0  0  0  0  0  0  0  0  0
    0.0000    0.0000    0.0000 S   0  0  0  0  0  0  0  0  0  0  0  0
    1.1072    0.0000    2.4438 N   0  0  0  0  0  0  0  0  0  0  0  0
    1.0455   -0.0175    3.8294 C   0  0  0  0  0  0  0  0  0  0  0  0
    2.0559    0.0133    4.5099 O   0  0  0  0  0  0  0  0  0  0  0  0
   -0.3325   -0.0938    4.4723 C   0  0  0  0  0  0  0  0  0  0  0  0
   -0.3243   -0.1566    5.8443 C   0  0  0  0  0  0  0  0  0  0  0  0
   -1.2706   -0.2995    6.9280 C   0  0  0  0  0  0  0  0  0  0  0  0
   -2.6445   -0.6374    6.8338 C   0  0  0  0  0  0  0  0  0  0  0  0
   -3.4320   -0.7691    7.9653 C   0  0  0  0  0  0  0  0  0  0  0  0
   -2.8840   -0.5599    9.2436 C   0  0  0  0  0  0  0  0  0  0  0  0
   -3.7013   -0.6929   10.3060 O   0  0  0  0  0  0  0  0  0  0  0  0
   -1.5236   -0.2338    9.3680 C   0  0  0  0  0  0  0  0  0  0  0  0
   -0.7386   -0.1201    8.2303 C   0  0  0  0  0  0  0  0  0  0  0  0
   -3.2564    0.0799    3.2030 H   0  0  0  0  0  0  0  0  0  0  0  0
    2.2857   -0.0169   -0.3418 Au  0  0  0  0  0  0  0  0  0  0  0  0
    0.7116   -0.0829    6.1994 H   0  0  0  0  0  0  0  0  0  0  0  0
   -3.0867   -0.8038    5.8571 H   0  0  0  0  0  0  0  0  0  0  0  0
   -4.4872   -1.0369    7.8897 H   0  0  0  0  0  0  0  0  0  0  0  0
   -3.2110   -0.5280   11.1231 H   0  0  0  0  0  0  0  0  0  0  0  0
   -1.0861   -0.0802   10.3587 H   0  0  0  0  0  0  0  0  0  0  0  0
    0.3216    0.1199    8.3370 H   0  0  0  0  0  0  0  0  0  0  0  0
  2  1  1  0  0  0  0
  2  9  1  0  0  0  0
  3  2  2  0  0  0  0
  4  3  2  0  0  0  0
  4  6  2  0  0  0  0
  5  4  1  0  0  0  0
  6  7  2  0  0  0  0
  7  9  1  0  0  0  0
  7  8  2  0  0  0  0
  9 10  2  0  0  0  0
 10 20  1  0  0  0  0
 10 11  1  0  0  0  0
 11 17  1  0  0  0  0
 12 11  2  0  0  0  0
 12 13  1  0  0  0  0
 13 14  2  0  0  0  0
 14 16  1  0  0  0  0
 14 15  1  0  0  0  0
 15 23  1  0  0  0  0
 16 24  1  0  0  0  0
 17 25  1  0  0  0  0
 17 16  2  0  0  0  0
 18  1  1  0  0  0  0
 19  5  1  0  0  0  0
 21 12  1  0  0  0  0
 22 13  1  0  0  0  0
M  END
