000-838-574.xyz
 OpenBabel07262113373D
SC1=NC(=O)/C(=C\c2cc(n(c2C)c2ccc(cc2)Br)C)/C(=N1)O
 38 40  0  0  0  0  0  0  0  0999 V2000
    4.1177    1.7730    8.5784 C   0  0  0  0  0  0  0  0  0  0  0  0
    2.7622    1.7038    7.9616 C   0  0  0  0  0  0  0  0  0  0  0  0
    2.3312    1.1097    6.8079 C   0  0  0  0  0  0  0  0  0  0  0  0
    0.9152    1.3617    6.6745 C   0  0  0  0  0  0  0  0  0  0  0  0
   -0.0327    0.9764    5.6815 C   0  0  0  0  0  0  0  0  0  0  0  0
    0.0486    0.3870    4.4362 C   0  0  0  0  0  0  0  0  0  0  0  0
   -1.1851    0.1454    3.6890 C   0  0  0  0  0  0  0  0  0  0  0  0
   -2.3690    0.0950    4.3230 O   0  0  0  0  0  0  0  0  0  0  0  0
   -1.2197   -0.0310    2.4057 N   0  0  0  0  0  0  0  0  0  0  0  0
    0.0000    0.0000    1.7664 C   0  0  0  0  0  0  0  0  0  0  0  0
    0.0000    0.0000    0.0000 S   0  0  0  0  0  0  0  0  0  0  0  0
    1.1815    0.0000    2.3019 N   0  0  0  0  0  0  0  0  0  0  0  0
    1.3061    0.0652    3.6813 C   0  0  0  0  0  0  0  0  0  0  0  0
    2.3836   -0.1022    4.2287 O   0  0  0  0  0  0  0  0  0  0  0  0
    0.5316    2.1276    7.8029 C   0  0  0  0  0  0  0  0  0  0  0  0
   -0.7877    2.6891    8.2131 C   0  0  0  0  0  0  0  0  0  0  0  0
    1.6512    2.3262    8.5590 N   0  0  0  0  0  0  0  0  0  0  0  0
    1.6965    3.0641    9.7782 C   0  0  0  0  0  0  0  0  0  0  0  0
    1.7182    4.4623    9.7487 C   0  0  0  0  0  0  0  0  0  0  0  0
    1.7627    5.1887   10.9394 C   0  0  0  0  0  0  0  0  0  0  0  0
    1.7932    4.5041   12.1580 C   0  0  0  0  0  0  0  0  0  0  0  0
    1.8579    5.4876   13.7835 Br  0  0  0  0  0  0  0  0  0  0  0  0
    1.7780    3.1067   12.1985 C   0  0  0  0  0  0  0  0  0  0  0  0
    1.7268    2.3890   11.0029 C   0  0  0  0  0  0  0  0  0  0  0  0
    4.1530    1.2875    9.5679 H   0  0  0  0  0  0  0  0  0  0  0  0
    4.8402    1.2669    7.9246 H   0  0  0  0  0  0  0  0  0  0  0  0
    4.4513    2.8148    8.7186 H   0  0  0  0  0  0  0  0  0  0  0  0
    2.9204    0.5427    6.0963 H   0  0  0  0  0  0  0  0  0  0  0  0
   -1.0502    1.2719    5.9647 H   0  0  0  0  0  0  0  0  0  0  0  0
   -2.2189    0.0027    5.2735 H   0  0  0  0  0  0  0  0  0  0  0  0
   -2.2556   -0.0542   -0.4691 Au  0  0  0  0  0  0  0  0  0  0  0  0
   -1.0080    2.4609    9.2680 H   0  0  0  0  0  0  0  0  0  0  0  0
   -1.6010    2.2811    7.5999 H   0  0  0  0  0  0  0  0  0  0  0  0
   -0.8167    3.7869    8.1095 H   0  0  0  0  0  0  0  0  0  0  0  0
    1.7063    4.9787    8.7871 H   0  0  0  0  0  0  0  0  0  0  0  0
    1.7797    6.2790   10.9221 H   0  0  0  0  0  0  0  0  0  0  0  0
    1.8019    2.5855   13.1562 H   0  0  0  0  0  0  0  0  0  0  0  0
    1.7071    1.2977   11.0141 H   0  0  0  0  0  0  0  0  0  0  0  0
  1 27  1  0  0  0  0
  1 25  1  0  0  0  0
  2 17  1  0  0  0  0
  2  1  1  0  0  0  0
  3  2  2  0  0  0  0
  4  3  1  0  0  0  0
  4 15  2  0  0  0  0
  5 29  1  0  0  0  0
  5  4  1  0  0  0  0
  6  5  2  0  0  0  0
  7  8  1  0  0  0  0
  7  6  1  0  0  0  0
  8 30  1  0  0  0  0
  9  7  2  0  0  0  0
 10 12  2  0  0  0  0
 10  9  2  0  0  0  0
 11 10  1  0  0  0  0
 12 13  2  0  0  0  0
 13 14  2  0  0  0  0
 13  6  1  0  0  0  0
 15 16  1  0  0  0  0
 15 17  1  0  0  0  0
 16 32  1  0  0  0  0
 17 18  1  0  0  0  0
 18 24  1  0  0  0  0
 19 18  2  0  0  0  0
 19 20  1  0  0  0  0
 20 21  2  0  0  0  0
 21 23  1  0  0  0  0
 21 22  1  0  0  0  0
 23 37  1  0  0  0  0
 24 38  1  0  0  0  0
 24 23  2  0  0  0  0
 26  1  1  0  0  0  0
 28  3  1  0  0  0  0
 31 11  1  0  0  0  0
 33 16  1  0  0  0  0
 34 16  1  0  0  0  0
 35 19  1  0  0  0  0
 36 20  1  0  0  0  0
M  END
