000-888-873.xyz
 OpenBabel07262113383D
O=C1N=C(S/C/1=C/c1ccccc1)S
 21 22  0  0  0  0  0  0  0  0999 V2000
    0.0000    0.0000    0.0000 S   0  0  0  0  0  0  0  0  0  0  0  0
   -0.0000   -0.0000    1.7398 C   0  0  0  0  0  0  0  0  0  0  0  0
   -1.0412    0.0000    2.5034 N   0  0  0  0  0  0  0  0  0  0  0  0
   -0.7323    0.0001    3.8709 C   0  0  0  0  0  0  0  0  0  0  0  0
   -1.5864    0.0005    4.7334 O   0  0  0  0  0  0  0  0  0  0  0  0
    0.7595   -0.0001    4.1113 C   0  0  0  0  0  0  0  0  0  0  0  0
    1.5880    0.0000    2.5323 S   0  0  0  0  0  0  0  0  0  0  0  0
    1.5076   -0.0006    5.2480 C   0  0  0  0  0  0  0  0  0  0  0  0
    1.2154   -0.0009    6.6774 C   0  0  0  0  0  0  0  0  0  0  0  0
   -0.0711   -0.0001    7.2611 C   0  0  0  0  0  0  0  0  0  0  0  0
   -0.2124   -0.0005    8.6477 C   0  0  0  0  0  0  0  0  0  0  0  0
    0.9085   -0.0017    9.4839 C   0  0  0  0  0  0  0  0  0  0  0  0
    2.1896   -0.0024    8.9228 C   0  0  0  0  0  0  0  0  0  0  0  0
    2.3384   -0.0020    7.5394 C   0  0  0  0  0  0  0  0  0  0  0  0
   -2.3022   -0.0019   -0.2946 Au  0  0  0  0  0  0  0  0  0  0  0  0
    2.5880   -0.0009    5.0612 H   0  0  0  0  0  0  0  0  0  0  0  0
   -0.9441    0.0009    6.6124 H   0  0  0  0  0  0  0  0  0  0  0  0
   -1.2154    0.0001    9.0812 H   0  0  0  0  0  0  0  0  0  0  0  0
    0.7852   -0.0020   10.5697 H   0  0  0  0  0  0  0  0  0  0  0  0
    3.0728   -0.0033    9.5658 H   0  0  0  0  0  0  0  0  0  0  0  0
    3.3418   -0.0026    7.1054 H   0  0  0  0  0  0  0  0  0  0  0  0
  1  2  1  0  0  0  0
  2  3  2  0  0  0  0
  2  7  1  0  0  0  0
  3  4  2  0  0  0  0
  4  6  1  0  0  0  0
  4  5  2  0  0  0  0
  6  8  2  0  0  0  0
  7  6  1  0  0  0  0
  8  9  1  0  0  0  0
  9 10  2  0  0  0  0
  9 14  1  0  0  0  0
 10 11  1  0  0  0  0
 11 18  1  0  0  0  0
 11 12  2  0  0  0  0
 12 19  1  0  0  0  0
 13 12  1  0  0  0  0
 13 20  1  0  0  0  0
 14 13  2  0  0  0  0
 15  1  1  0  0  0  0
 16  8  1  0  0  0  0
 17 10  1  0  0  0  0
 21 14  1  0  0  0  0
M  END
