000-735-643.xyz
 OpenBabel07262113343D
Cc1ccc(cc1)N1C(=NC(=O)/C(=C/c2cccn2C)/C1=O)S
 38 40  0  0  1  0  0  0  0  0999 V2000
   -5.9525    0.3538   -0.9955 C   0  0  0  0  0  0  0  0  0  0  0  0
   -4.7335    0.2543   -0.1151 C   0  0  0  0  0  0  0  0  0  0  0  0
   -4.1235    1.4154    0.3896 C   0  0  0  0  0  0  0  0  0  0  0  0
   -2.9892    1.3413    1.1930 C   0  0  0  0  0  0  0  0  0  0  0  0
   -2.4412    0.0936    1.5031 C   0  0  0  0  0  0  0  0  0  0  0  0
   -3.0372   -1.0727    1.0219 C   0  0  0  0  0  0  0  0  0  0  0  0
   -4.1731   -0.9874    0.2160 C   0  0  0  0  0  0  0  0  0  0  0  0
   -1.2677    0.0084    2.3316 N   0  0  0  0  0  0  0  0  0  0  0  0
   -0.0000   -0.0000    1.7728 C   0  0  0  0  0  0  0  0  0  0  0  0
    0.0000    0.0000    0.0000 S   0  0  0  0  0  0  0  0  0  0  0  0
    1.1053    0.0000    2.4424 N   0  0  0  0  0  0  0  0  0  0  0  0
    1.1013   -0.0065    3.8360 C   0  0  0  0  0  0  0  0  0  0  0  0
    2.1455    0.0622    4.4599 O   0  0  0  0  0  0  0  0  0  0  0  0
   -0.2258   -0.1310    4.5221 C   0  0  1  0  0  0  0  0  0  0  0  0
   -0.1970   -0.1506    5.8981 C   0  0  0  0  0  0  0  0  0  0  0  0
   -1.1663   -0.3787    6.9150 C   0  0  0  0  0  0  0  0  0  0  0  0
   -1.1009    0.1793    8.2084 C   0  0  0  0  0  0  0  0  0  0  0  0
   -2.2394   -0.2305    8.9181 C   0  0  0  0  0  0  0  0  0  0  0  0
   -2.9509   -1.0796    8.0710 C   0  0  0  0  0  0  0  0  0  0  0  0
   -2.3171   -1.1660    6.8720 N   0  0  0  0  0  0  0  0  0  0  0  0
   -2.6825   -2.1314    5.8477 C   0  0  0  0  0  0  0  0  0  0  0  0
   -1.4584   -0.0223    3.7377 C   0  0  0  0  0  0  0  0  0  0  0  0
   -2.5866    0.0889    4.1823 O   0  0  0  0  0  0  0  0  0  0  0  0
   -6.3758   -0.6369   -1.2149 H   0  0  0  0  0  0  0  0  0  0  0  0
   -5.7072    0.8354   -1.9569 H   0  0  0  0  0  0  0  0  0  0  0  0
   -6.7382    0.9637   -0.5210 H   0  0  0  0  0  0  0  0  0  0  0  0
   -4.5473    2.3938    0.1484 H   0  0  0  0  0  0  0  0  0  0  0  0
   -2.5185    2.2447    1.5841 H   0  0  0  0  0  0  0  0  0  0  0  0
   -2.6017   -2.0411    1.2743 H   0  0  0  0  0  0  0  0  0  0  0  0
   -4.6327   -1.9035   -0.1630 H   0  0  0  0  0  0  0  0  0  0  0  0
    2.3081    0.0088   -0.2563 Au  0  0  0  0  0  0  0  0  0  0  0  0
    0.8001    0.0779    6.2932 H   0  0  0  0  0  0  0  0  0  0  0  0
   -0.3121    0.8478    8.5481 H   0  0  0  0  0  0  0  0  0  0  0  0
   -2.5190    0.0370    9.9346 H   0  0  0  0  0  0  0  0  0  0  0  0
   -3.8499   -1.6629    8.2617 H   0  0  0  0  0  0  0  0  0  0  0  0
   -3.4412   -1.7198    5.1714 H   0  0  0  0  0  0  0  0  0  0  0  0
   -3.0502   -3.0466    6.3328 H   0  0  0  0  0  0  0  0  0  0  0  0
   -1.7952   -2.3843    5.2542 H   0  0  0  0  0  0  0  0  0  0  0  0
  1 26  1  0  0  0  0
  1  2  1  0  0  0  0
  2  7  2  0  0  0  0
  2  3  1  0  0  0  0
  3  4  2  0  0  0  0
  4  5  1  0  0  0  0
  4 28  1  0  0  0  0
  5  8  1  0  0  0  0
  6 29  1  0  0  0  0
  6  5  2  0  0  0  0
  7  6  1  0  0  0  0
  8 22  1  0  0  0  0
  9  8  1  0  0  0  0
  9 11  2  0  0  0  0
 10  9  1  0  0  0  0
 11 12  2  0  0  0  0
 12 13  2  0  0  0  0
 12 14  1  0  0  0  0
 14 15  1  1  0  0  0
 15 32  1  0  0  0  0
 15 16  1  0  0  0  0
 16 17  2  0  0  0  0
 17 33  1  0  0  0  0
 17 18  1  0  0  0  0
 18 34  1  0  0  0  0
 19 35  1  0  0  0  0
 19 18  2  0  0  0  0
 20 16  1  0  0  0  0
 20 19  1  0  0  0  0
 21 37  1  0  0  0  0
 21 20  1  0  0  0  0
 22 23  2  0  0  0  0
 22 14  1  0  0  0  0
 24  1  1  0  0  0  0
 25  1  1  0  0  0  0
 27  3  1  0  0  0  0
 30  7  1  0  0  0  0
 31 10  1  0  0  0  0
 36 21  1  0  0  0  0
 38 21  1  0  0  0  0
M  RAD  2  14   2  15   2
M  END
