000-438-484.xyz
 OpenBabel07262113333D
Clc1ccc(cc1)c1nnc(n1/N=C/c1cc(Br)cc(c1O)Br)S
 33 35  0  0  0  0  0  0  0  0999 V2000
   -5.0528   -0.9287    2.7616 O   0  0  0  0  0  0  0  0  0  0  0  0
   -5.3278   -0.4327    1.5493 C   0  0  0  0  0  0  0  0  0  0  0  0
   -6.6303   -0.4526    1.0110 C   0  0  0  0  0  0  0  0  0  0  0  0
   -8.0235   -1.2198    2.0704 Br  0  0  0  0  0  0  0  0  0  0  0  0
   -6.9309    0.0622   -0.2475 C   0  0  0  0  0  0  0  0  0  0  0  0
   -5.8996    0.6195   -1.0067 C   0  0  0  0  0  0  0  0  0  0  0  0
   -6.2787    1.3305   -2.7294 Br  0  0  0  0  0  0  0  0  0  0  0  0
   -4.6015    0.6542   -0.5085 C   0  0  0  0  0  0  0  0  0  0  0  0
   -4.2918    0.1366    0.7631 C   0  0  0  0  0  0  0  0  0  0  0  0
   -2.8911    0.2207    1.1753 C   0  0  0  0  0  0  0  0  0  0  0  0
   -2.4473   -0.2004    2.3007 N   0  0  0  0  0  0  0  0  0  0  0  0
   -1.1212   -0.1080    2.5785 N   0  0  0  0  0  0  0  0  0  0  0  0
    0.0000    0.0000    1.7545 C   0  0  0  0  0  0  0  0  0  0  0  0
    0.0000    0.0000    0.0000 S   0  0  0  0  0  0  0  0  0  0  0  0
    1.0781   -0.0000    2.5111 N   0  0  0  0  0  0  0  0  0  0  0  0
    0.7012   -0.1028    3.8143 N   0  0  0  0  0  0  0  0  0  0  0  0
   -0.6083   -0.1789    3.8790 C   0  0  0  0  0  0  0  0  0  0  0  0
   -1.3562   -0.2793    5.1387 C   0  0  0  0  0  0  0  0  0  0  0  0
   -2.7468   -0.4698    5.2290 C   0  0  0  0  0  0  0  0  0  0  0  0
   -3.3667   -0.5638    6.4758 C   0  0  0  0  0  0  0  0  0  0  0  0
   -2.6056   -0.4705    7.6413 C   0  0  0  0  0  0  0  0  0  0  0  0
   -3.3869   -0.5860    9.1996 Cl  0  0  0  0  0  0  0  0  0  0  0  0
   -1.2206   -0.2847    7.5731 C   0  0  0  0  0  0  0  0  0  0  0  0
   -0.6060   -0.1901    6.3300 C   0  0  0  0  0  0  0  0  0  0  0  0
   -5.8698   -1.2923    3.1465 H   0  0  0  0  0  0  0  0  0  0  0  0
   -7.9518    0.0285   -0.6266 H   0  0  0  0  0  0  0  0  0  0  0  0
   -3.8007    1.0865   -1.1103 H   0  0  0  0  0  0  0  0  0  0  0  0
   -2.2288    0.6970    0.4361 H   0  0  0  0  0  0  0  0  0  0  0  0
    2.3056   -0.2717   -0.1984 Au  0  0  0  0  0  0  0  0  0  0  0  0
   -3.3457   -0.5498    4.3253 H   0  0  0  0  0  0  0  0  0  0  0  0
   -4.4456   -0.7101    6.5459 H   0  0  0  0  0  0  0  0  0  0  0  0
   -0.6361   -0.2137    8.4914 H   0  0  0  0  0  0  0  0  0  0  0  0
    0.4723   -0.0459    6.2567 H   0  0  0  0  0  0  0  0  0  0  0  0
  1 25  1  0  0  0  0
  2  1  1  0  0  0  0
  3  2  1  0  0  0  0
  3  4  1  0  0  0  0
  5  3  2  0  0  0  0
  6  8  2  0  0  0  0
  6  5  1  0  0  0  0
  7  6  1  0  0  0  0
  8  9  1  0  0  0  0
  9 10  1  0  0  0  0
  9  2  2  0  0  0  0
 10 11  2  0  0  0  0
 11 12  1  0  0  0  0
 12 17  1  0  0  0  0
 13 15  2  0  0  0  0
 13 12  1  0  0  0  0
 14 13  1  0  0  0  0
 15 16  1  0  0  0  0
 16 17  2  0  0  0  0
 17 18  1  0  0  0  0
 18 19  2  0  0  0  0
 18 24  1  0  0  0  0
 19 20  1  0  0  0  0
 20 31  1  0  0  0  0
 20 21  2  0  0  0  0
 21 22  1  0  0  0  0
 23 21  1  0  0  0  0
 23 32  1  0  0  0  0
 24 23  2  0  0  0  0
 26  5  1  0  0  0  0
 27  8  1  0  0  0  0
 28 10  1  0  0  0  0
 29 14  1  0  0  0  0
 30 19  1  0  0  0  0
 33 24  1  0  0  0  0
M  END
