000-738-788.xyz
 OpenBabel07262113343D
Cc1cccc(c1)N1C(=NC(=O)/C(=C/c2c(C)[nH]c3c2cccc3)/C1=O)S
 44 47  0  0  0  0  0  0  0  0999 V2000
    0.1531    0.6807    8.8083 C   0  0  0  0  0  0  0  0  0  0  0  0
   -0.9523   -0.1309    8.2253 C   0  0  0  0  0  0  0  0  0  0  0  0
   -2.0092   -0.5323    8.9842 N   0  0  0  0  0  0  0  0  0  0  0  0
   -2.9115   -1.2596    8.2181 C   0  0  0  0  0  0  0  0  0  0  0  0
   -4.0844   -1.9076    8.6113 C   0  0  0  0  0  0  0  0  0  0  0  0
   -4.7688   -2.6338    7.6388 C   0  0  0  0  0  0  0  0  0  0  0  0
   -4.2748   -2.7166    6.3233 C   0  0  0  0  0  0  0  0  0  0  0  0
   -3.1054   -2.0625    5.9414 C   0  0  0  0  0  0  0  0  0  0  0  0
   -2.4111   -1.2934    6.8898 C   0  0  0  0  0  0  0  0  0  0  0  0
   -1.1587   -0.5448    6.8943 C   0  0  0  0  0  0  0  0  0  0  0  0
   -0.1827   -0.2636    5.8904 C   0  0  0  0  0  0  0  0  0  0  0  0
   -0.2184   -0.1571    4.5216 C   0  0  0  0  0  0  0  0  0  0  0  0
    1.1062   -0.0173    3.8343 C   0  0  0  0  0  0  0  0  0  0  0  0
    2.1532    0.0533    4.4556 O   0  0  0  0  0  0  0  0  0  0  0  0
    1.1079   -0.0000    2.4412 N   0  0  0  0  0  0  0  0  0  0  0  0
    0.0000    0.0000    1.7739 C   0  0  0  0  0  0  0  0  0  0  0  0
    0.0000    0.0000    0.0000 S   0  0  0  0  0  0  0  0  0  0  0  0
   -1.2641    0.0083    2.3337 N   0  0  0  0  0  0  0  0  0  0  0  0
   -1.4524   -0.0238    3.7448 C   0  0  0  0  0  0  0  0  0  0  0  0
   -2.5769    0.0956    4.1908 O   0  0  0  0  0  0  0  0  0  0  0  0
   -2.4414    0.0890    1.5095 C   0  0  0  0  0  0  0  0  0  0  0  0
   -3.0719   -1.0866    1.0923 C   0  0  0  0  0  0  0  0  0  0  0  0
   -4.2088   -0.9952    0.2918 C   0  0  0  0  0  0  0  0  0  0  0  0
   -4.7080    0.2565   -0.0808 C   0  0  0  0  0  0  0  0  0  0  0  0
   -4.0859    1.4404    0.3399 C   0  0  0  0  0  0  0  0  0  0  0  0
   -4.6160    2.7946   -0.0568 C   0  0  0  0  0  0  0  0  0  0  0  0
   -2.9440    1.3376    1.1460 C   0  0  0  0  0  0  0  0  0  0  0  0
   -0.0713    1.7601    8.7594 H   0  0  0  0  0  0  0  0  0  0  0  0
    0.3228    0.4187    9.8643 H   0  0  0  0  0  0  0  0  0  0  0  0
    1.0909    0.5211    8.2584 H   0  0  0  0  0  0  0  0  0  0  0  0
   -2.1145   -0.3345    9.9711 H   0  0  0  0  0  0  0  0  0  0  0  0
   -4.4433   -1.8571    9.6419 H   0  0  0  0  0  0  0  0  0  0  0  0
   -5.6917   -3.1542    7.9044 H   0  0  0  0  0  0  0  0  0  0  0  0
   -4.8225   -3.3054    5.5840 H   0  0  0  0  0  0  0  0  0  0  0  0
   -2.7439   -2.1469    4.9204 H   0  0  0  0  0  0  0  0  0  0  0  0
    0.8339   -0.1029    6.2695 H   0  0  0  0  0  0  0  0  0  0  0  0
    2.3085   -0.0129   -0.2518 Au  0  0  0  0  0  0  0  0  0  0  0  0
   -2.6626   -2.0527    1.3916 H   0  0  0  0  0  0  0  0  0  0  0  0
   -4.7111   -1.9044   -0.0458 H   0  0  0  0  0  0  0  0  0  0  0  0
   -5.6001    0.3163   -0.7096 H   0  0  0  0  0  0  0  0  0  0  0  0
   -3.8760    3.3496   -0.6569 H   0  0  0  0  0  0  0  0  0  0  0  0
   -4.8396    3.4093    0.8303 H   0  0  0  0  0  0  0  0  0  0  0  0
   -5.5370    2.7092   -0.6513 H   0  0  0  0  0  0  0  0  0  0  0  0
   -2.4308    2.2357    1.4963 H   0  0  0  0  0  0  0  0  0  0  0  0
  1 29  1  0  0  0  0
  2  1  1  0  0  0  0
  2  3  1  0  0  0  0
  3 31  1  0  0  0  0
  4  5  1  0  0  0  0
  4  3  1  0  0  0  0
  5 32  1  0  0  0  0
  6 33  1  0  0  0  0
  6  5  2  0  0  0  0
  7  6  1  0  0  0  0
  8  7  2  0  0  0  0
  8  9  1  0  0  0  0
  9 10  1  0  0  0  0
  9  4  2  0  0  0  0
 10  2  2  0  0  0  0
 11 36  1  0  0  0  0
 11 10  1  0  0  0  0
 12 11  2  0  0  0  0
 13 14  2  0  0  0  0
 13 12  1  0  0  0  0
 15 13  2  0  0  0  0
 16 18  1  0  0  0  0
 16 15  2  0  0  0  0
 17 16  1  0  0  0  0
 18 19  1  0  0  0  0
 19 20  2  0  0  0  0
 19 12  1  0  0  0  0
 21 18  1  0  0  0  0
 22 38  1  0  0  0  0
 22 21  2  0  0  0  0
 23 22  1  0  0  0  0
 24 23  2  0  0  0  0
 24 25  1  0  0  0  0
 25 27  2  0  0  0  0
 26 25  1  0  0  0  0
 26 42  1  0  0  0  0
 27 44  1  0  0  0  0
 27 21  1  0  0  0  0
 28  1  1  0  0  0  0
 30  1  1  0  0  0  0
 34  7  1  0  0  0  0
 35  8  1  0  0  0  0
 37 17  1  0  0  0  0
 39 23  1  0  0  0  0
 40 24  1  0  0  0  0
 41 26  1  0  0  0  0
 43 26  1  0  0  0  0
M  END
