000-818-574.xyz
 OpenBabel07262113373D
COc1ccc(cc1)c1cc(O)nc(n1)S
 26 27  0  0  0  0  0  0  0  0999 V2000
    7.7431    0.0009    4.8560 C   0  0  0  0  0  0  0  0  0  0  0  0
    6.6103   -0.0003    5.6965 O   0  0  0  0  0  0  0  0  0  0  0  0
    5.3779   -0.0001    5.1405 C   0  0  0  0  0  0  0  0  0  0  0  0
    4.2930   -0.0014    6.0362 C   0  0  0  0  0  0  0  0  0  0  0  0
    2.9912   -0.0013    5.5585 C   0  0  0  0  0  0  0  0  0  0  0  0
    2.7225    0.0000    4.1749 C   0  0  0  0  0  0  0  0  0  0  0  0
    3.8144    0.0012    3.2935 C   0  0  0  0  0  0  0  0  0  0  0  0
    5.1285    0.0012    3.7588 C   0  0  0  0  0  0  0  0  0  0  0  0
    1.3468    0.0001    3.6325 C   0  0  0  0  0  0  0  0  0  0  0  0
    0.2064    0.0004    4.4446 C   0  0  0  0  0  0  0  0  0  0  0  0
   -1.0312    0.0002    3.7892 C   0  0  0  0  0  0  0  0  0  0  0  0
   -2.1571    0.0004    4.5127 O   0  0  0  0  0  0  0  0  0  0  0  0
   -1.1496    0.0000    2.4641 N   0  0  0  0  0  0  0  0  0  0  0  0
    0.0000   -0.0000    1.7758 C   0  0  0  0  0  0  0  0  0  0  0  0
    0.0000    0.0000    0.0000 S   0  0  0  0  0  0  0  0  0  0  0  0
    1.2202   -0.0000    2.2887 N   0  0  0  0  0  0  0  0  0  0  0  0
    8.6213    0.0003    5.5147 H   0  0  0  0  0  0  0  0  0  0  0  0
    7.7752   -0.8962    4.2125 H   0  0  0  0  0  0  0  0  0  0  0  0
    7.7749    0.8995    4.2146 H   0  0  0  0  0  0  0  0  0  0  0  0
    4.5057   -0.0025    7.1065 H   0  0  0  0  0  0  0  0  0  0  0  0
    2.1731   -0.0024    6.2800 H   0  0  0  0  0  0  0  0  0  0  0  0
    3.6078    0.0022    2.2230 H   0  0  0  0  0  0  0  0  0  0  0  0
    5.9474    0.0022    3.0401 H   0  0  0  0  0  0  0  0  0  0  0  0
    0.2396    0.0007    5.5313 H   0  0  0  0  0  0  0  0  0  0  0  0
   -2.8930    0.0002    3.8787 H   0  0  0  0  0  0  0  0  0  0  0  0
   -2.2465    0.0001   -0.4928 Au  0  0  0  0  0  0  0  0  0  0  0  0
  1 17  1  0  0  0  0
  1  2  1  0  0  0  0
  3  2  1  0  0  0  0
  3  4  2  0  0  0  0
  4 20  1  0  0  0  0
  5  4  1  0  0  0  0
  5 21  1  0  0  0  0
  6  5  2  0  0  0  0
  7  8  2  0  0  0  0
  7  6  1  0  0  0  0
  8  3  1  0  0  0  0
  9  6  1  0  0  0  0
  9 10  1  0  0  0  0
 10 24  1  0  0  0  0
 11 10  1  0  0  0  0
 11 12  1  0  0  0  0
 13 11  2  0  0  0  0
 14 16  2  0  0  0  0
 14 13  2  0  0  0  0
 15 14  1  0  0  0  0
 16  9  2  0  0  0  0
 18  1  1  0  0  0  0
 19  1  1  0  0  0  0
 22  7  1  0  0  0  0
 23  8  1  0  0  0  0
 25 12  1  0  0  0  0
 26 15  1  0  0  0  0
M  RAD  1  10   2
M  END
