000-763-590.xyz
 OpenBabel07262113353D
CCn1cc(c2c1cccc2)/C=C/1\C(=O)N=C(N(C1=O)c1ccccc1C)S
 47 50  0  0  0  0  0  0  0  0999 V2000
    5.4256    1.8436    8.2322 C   0  0  0  0  0  0  0  0  0  0  0  0
    4.8013    0.4506    8.1935 C   0  0  0  0  0  0  0  0  0  0  0  0
    3.3658    0.4832    7.9530 N   0  0  0  0  0  0  0  0  0  0  0  0
    2.7738    0.3021    6.7475 C   0  0  0  0  0  0  0  0  0  0  0  0
    1.3829    0.4650    6.8583 C   0  0  0  0  0  0  0  0  0  0  0  0
    0.3468    0.3674    5.8938 C   0  0  0  0  0  0  0  0  0  0  0  0
    0.2958    0.1635    4.5278 C   0  0  0  0  0  0  0  0  0  0  0  0
    1.4512   -0.0337    3.6273 C   0  0  0  0  0  0  0  0  0  0  0  0
    2.5984   -0.1883    4.0237 O   0  0  0  0  0  0  0  0  0  0  0  0
    1.1923   -0.0000    2.2593 N   0  0  0  0  0  0  0  0  0  0  0  0
   -0.0000    0.0000    1.7810 C   0  0  0  0  0  0  0  0  0  0  0  0
    0.0000    0.0000    0.0000 S   0  0  0  0  0  0  0  0  0  0  0  0
   -1.1558   -0.0283    2.5563 N   0  0  0  0  0  0  0  0  0  0  0  0
   -1.0681    0.1198    3.9680 C   0  0  0  0  0  0  0  0  0  0  0  0
   -2.0977    0.1840    4.6178 O   0  0  0  0  0  0  0  0  0  0  0  0
   -2.4641   -0.2648    2.0165 C   0  0  0  0  0  0  0  0  0  0  0  0
   -2.7909   -1.5577    1.6058 C   0  0  0  0  0  0  0  0  0  0  0  0
   -4.0229   -1.8138    1.0017 C   0  0  0  0  0  0  0  0  0  0  0  0
   -4.9250   -0.7656    0.8136 C   0  0  0  0  0  0  0  0  0  0  0  0
   -4.6045    0.5241    1.2561 C   0  0  0  0  0  0  0  0  0  0  0  0
   -3.3764    0.8026    1.8806 C   0  0  0  0  0  0  0  0  0  0  0  0
   -3.0535    2.1774    2.3953 C   0  0  0  0  0  0  0  0  0  0  0  0
    1.1370    0.7719    8.2658 C   0  0  0  0  0  0  0  0  0  0  0  0
   -0.0170    1.0328    9.0185 C   0  0  0  0  0  0  0  0  0  0  0  0
    0.1132    1.2939   10.3818 C   0  0  0  0  0  0  0  0  0  0  0  0
    1.3758    1.2996   11.0062 C   0  0  0  0  0  0  0  0  0  0  0  0
    2.5388    1.0439   10.2801 C   0  0  0  0  0  0  0  0  0  0  0  0
    2.3974    0.7818    8.9142 C   0  0  0  0  0  0  0  0  0  0  0  0
    5.2772    2.3621    7.2729 H   0  0  0  0  0  0  0  0  0  0  0  0
    4.9777    2.4591    9.0267 H   0  0  0  0  0  0  0  0  0  0  0  0
    6.5075    1.7698    8.4223 H   0  0  0  0  0  0  0  0  0  0  0  0
    5.2524   -0.1554    7.3947 H   0  0  0  0  0  0  0  0  0  0  0  0
    4.9755   -0.0835    9.1412 H   0  0  0  0  0  0  0  0  0  0  0  0
    3.3315    0.0542    5.8489 H   0  0  0  0  0  0  0  0  0  0  0  0
   -0.6545    0.4932    6.3200 H   0  0  0  0  0  0  0  0  0  0  0  0
   -2.0414    0.7871   -0.7541 Au  0  0  0  0  0  0  0  0  0  0  0  0
   -2.0555   -2.3530    1.7371 H   0  0  0  0  0  0  0  0  0  0  0  0
   -4.2700   -2.8244    0.6709 H   0  0  0  0  0  0  0  0  0  0  0  0
   -5.8882   -0.9486    0.3321 H   0  0  0  0  0  0  0  0  0  0  0  0
   -5.3260    1.3354    1.1301 H   0  0  0  0  0  0  0  0  0  0  0  0
   -3.7353    2.9300    1.9753 H   0  0  0  0  0  0  0  0  0  0  0  0
   -2.0201    2.4660    2.1520 H   0  0  0  0  0  0  0  0  0  0  0  0
   -3.1431    2.1887    3.4926 H   0  0  0  0  0  0  0  0  0  0  0  0
   -1.0028    1.0315    8.5480 H   0  0  0  0  0  0  0  0  0  0  0  0
   -0.7786    1.4983   10.9785 H   0  0  0  0  0  0  0  0  0  0  0  0
    1.4463    1.5086   12.0759 H   0  0  0  0  0  0  0  0  0  0  0  0
    3.5163    1.0507   10.7653 H   0  0  0  0  0  0  0  0  0  0  0  0
  1 31  1  0  0  0  0
  1 30  1  0  0  0  0
  2  1  1  0  0  0  0
  2 33  1  0  0  0  0
  3  2  1  0  0  0  0
  3 28  1  0  0  0  0
  4  5  2  0  0  0  0
  4  3  1  0  0  0  0
  5 23  1  0  0  0  0
  6 35  1  0  0  0  0
  6  5  1  0  0  0  0
  7  6  2  0  0  0  0
  8  9  2  0  0  0  0
  8  7  1  0  0  0  0
 10  8  2  0  0  0  0
 11 10  2  0  0  0  0
 11 13  1  0  0  0  0
 12 11  1  0  0  0  0
 13 14  1  0  0  0  0
 14  7  1  0  0  0  0
 14 15  2  0  0  0  0
 16 13  1  0  0  0  0
 17 37  1  0  0  0  0
 17 16  2  0  0  0  0
 18 17  1  0  0  0  0
 19 18  2  0  0  0  0
 19 20  1  0  0  0  0
 20 21  2  0  0  0  0
 21 16  1  0  0  0  0
 21 22  1  0  0  0  0
 22 43  1  0  0  0  0
 23 28  2  0  0  0  0
 23 24  1  0  0  0  0
 24 25  2  0  0  0  0
 25 45  1  0  0  0  0
 25 26  1  0  0  0  0
 26 46  1  0  0  0  0
 27 47  1  0  0  0  0
 27 26  2  0  0  0  0
 28 27  1  0  0  0  0
 29  1  1  0  0  0  0
 32  2  1  0  0  0  0
 34  4  1  0  0  0  0
 36 12  1  0  0  0  0
 38 18  1  0  0  0  0
 39 19  1  0  0  0  0
 40 20  1  0  0  0  0
 41 22  1  0  0  0  0
 42 22  1  0  0  0  0
 44 24  1  0  0  0  0
M  END
