000-754-182.xyz
 OpenBabel07262113353D
SC1=NC(=O)/C(=C\C=C\c2coc3c(c2=O)cc(cc3)OC(=O)C)/C(=N1)O
 39 41  0  0  0  0  0  0  0  0999 V2000
   -9.9756    2.2497   11.0855 C   0  0  0  0  0  0  0  0  0  0  0  0
   -8.5807    2.7314   11.3724 C   0  0  0  0  0  0  0  0  0  0  0  0
   -8.2754    3.7487   11.9300 O   0  0  0  0  0  0  0  0  0  0  0  0
   -7.6710    1.8257   10.8908 O   0  0  0  0  0  0  0  0  0  0  0  0
   -6.3100    2.0408   10.9855 C   0  0  0  0  0  0  0  0  0  0  0  0
   -5.6958    2.5155   12.1607 C   0  0  0  0  0  0  0  0  0  0  0  0
   -4.3147    2.6553   12.2051 C   0  0  0  0  0  0  0  0  0  0  0  0
   -3.5548    2.3175   11.0813 C   0  0  0  0  0  0  0  0  0  0  0  0
   -2.1961    2.4708   11.1667 O   0  0  0  0  0  0  0  0  0  0  0  0
   -1.4325    2.1610   10.1201 C   0  0  0  0  0  0  0  0  0  0  0  0
   -1.8784    1.6831    8.9163 C   0  0  0  0  0  0  0  0  0  0  0  0
   -0.8963    1.4041    7.8889 C   0  0  0  0  0  0  0  0  0  0  0  0
   -1.1219    0.9277    6.6316 C   0  0  0  0  0  0  0  0  0  0  0  0
   -0.0119    0.7172    5.7495 C   0  0  0  0  0  0  0  0  0  0  0  0
   -0.0345    0.2860    4.4478 C   0  0  0  0  0  0  0  0  0  0  0  0
    1.2049    0.1231    3.6853 C   0  0  0  0  0  0  0  0  0  0  0  0
    2.3917    0.0931    4.3073 O   0  0  0  0  0  0  0  0  0  0  0  0
    1.2280   -0.0000    2.3980 N   0  0  0  0  0  0  0  0  0  0  0  0
   -0.0000   -0.0000    1.7634 C   0  0  0  0  0  0  0  0  0  0  0  0
    0.0000    0.0000    0.0000 S   0  0  0  0  0  0  0  0  0  0  0  0
   -1.1811   -0.0247    2.2979 N   0  0  0  0  0  0  0  0  0  0  0  0
   -1.3069    0.0311    3.6771 C   0  0  0  0  0  0  0  0  0  0  0  0
   -2.3834   -0.0862    4.2339 O   0  0  0  0  0  0  0  0  0  0  0  0
   -3.3360    1.4777    8.7259 C   0  0  0  0  0  0  0  0  0  0  0  0
   -3.8388    1.0534    7.6989 O   0  0  0  0  0  0  0  0  0  0  0  0
   -4.1543    1.8374    9.9097 C   0  0  0  0  0  0  0  0  0  0  0  0
   -5.5509    1.7048    9.8740 C   0  0  0  0  0  0  0  0  0  0  0  0
  -10.7013    2.9555   11.5054 H   0  0  0  0  0  0  0  0  0  0  0  0
  -10.1212    1.2472   11.5155 H   0  0  0  0  0  0  0  0  0  0  0  0
  -10.1197    2.1600    9.9978 H   0  0  0  0  0  0  0  0  0  0  0  0
   -6.3002    2.7803   13.0255 H   0  0  0  0  0  0  0  0  0  0  0  0
   -3.8107    3.0229   13.1001 H   0  0  0  0  0  0  0  0  0  0  0  0
   -0.3748    2.3355   10.3317 H   0  0  0  0  0  0  0  0  0  0  0  0
    0.1432    1.6071    8.1802 H   0  0  0  0  0  0  0  0  0  0  0  0
   -2.1267    0.6970    6.2814 H   0  0  0  0  0  0  0  0  0  0  0  0
    0.9645    0.9767    6.1841 H   0  0  0  0  0  0  0  0  0  0  0  0
    2.2601    0.0175    5.2619 H   0  0  0  0  0  0  0  0  0  0  0  0
    2.2544   -0.0031   -0.4791 Au  0  0  0  0  0  0  0  0  0  0  0  0
   -6.0192    1.3316    8.9627 H   0  0  0  0  0  0  0  0  0  0  0  0
  1  2  1  0  0  0  0
  1 28  1  0  0  0  0
  1 29  1  0  0  0  0
  2  3  2  0  0  0  0
  4  5  1  0  0  0  0
  4  2  1  0  0  0  0
  5  6  2  0  0  0  0
  6  7  1  0  0  0  0
  6 31  1  0  0  0  0
  7 32  1  0  0  0  0
  8  9  1  0  0  0  0
  8  7  2  0  0  0  0
 10 33  1  0  0  0  0
 10  9  1  0  0  0  0
 11 10  2  0  0  0  0
 12 34  1  0  0  0  0
 12 11  1  0  0  0  0
 13 12  2  0  0  0  0
 14 36  1  0  0  0  0
 14 13  1  0  0  0  0
 15 14  2  0  0  0  0
 16 17  1  0  0  0  0
 16 15  1  0  0  0  0
 17 37  1  0  0  0  0
 18 16  2  0  0  0  0
 19 21  2  0  0  0  0
 19 18  2  0  0  0  0
 20 19  1  0  0  0  0
 21 22  2  0  0  0  0
 22 23  2  0  0  0  0
 22 15  1  0  0  0  0
 24 11  1  0  0  0  0
 24 26  1  0  0  0  0
 25 24  2  0  0  0  0
 26  8  1  0  0  0  0
 27 26  2  0  0  0  0
 27  5  1  0  0  0  0
 30  1  1  0  0  0  0
 35 13  1  0  0  0  0
 38 20  1  0  0  0  0
 39 27  1  0  0  0  0
M  END
