000-740-882.xyz
 OpenBabel07262113343D
Fc1ccc(cc1)N1C(=NC(=O)/C(=C\c2cccc3c2cccc3)/C1=O)S
 40 43  0  0  0  0  0  0  0  0999 V2000
    5.7957    0.3323   -0.8390 F   0  0  0  0  0  0  0  0  0  0  0  0
    4.7039    0.2520   -0.0699 C   0  0  0  0  0  0  0  0  0  0  0  0
    4.0634    1.4266    0.3202 C   0  0  0  0  0  0  0  0  0  0  0  0
    2.9264    1.3372    1.1215 C   0  0  0  0  0  0  0  0  0  0  0  0
    2.4435    0.0846    1.5105 C   0  0  0  0  0  0  0  0  0  0  0  0
    3.1024   -1.0837    1.1170 C   0  0  0  0  0  0  0  0  0  0  0  0
    4.2414   -1.0044    0.3185 C   0  0  0  0  0  0  0  0  0  0  0  0
    1.2663   -0.0000    2.3324 N   0  0  0  0  0  0  0  0  0  0  0  0
   -0.0000   -0.0000    1.7700 C   0  0  0  0  0  0  0  0  0  0  0  0
    0.0000    0.0000    0.0000 S   0  0  0  0  0  0  0  0  0  0  0  0
   -1.1005    0.0013    2.4451 N   0  0  0  0  0  0  0  0  0  0  0  0
   -1.1078    0.0181    3.8381 C   0  0  0  0  0  0  0  0  0  0  0  0
   -2.1576    0.2318    4.4226 O   0  0  0  0  0  0  0  0  0  0  0  0
    0.1887   -0.2411    4.5277 C   0  0  0  0  0  0  0  0  0  0  0  0
    0.4085   -0.6232    5.8279 C   0  0  0  0  0  0  0  0  0  0  0  0
   -0.3992   -0.8899    7.0018 C   0  0  0  0  0  0  0  0  0  0  0  0
   -1.6800   -0.3634    7.1871 C   0  0  0  0  0  0  0  0  0  0  0  0
   -2.3977   -0.5736    8.3802 C   0  0  0  0  0  0  0  0  0  0  0  0
   -1.8506   -1.3190    9.4017 C   0  0  0  0  0  0  0  0  0  0  0  0
   -0.5578   -1.8940    9.2721 C   0  0  0  0  0  0  0  0  0  0  0  0
   -0.0035   -2.6733   10.3240 C   0  0  0  0  0  0  0  0  0  0  0  0
    1.2434   -3.2456   10.2023 C   0  0  0  0  0  0  0  0  0  0  0  0
    1.9802   -3.0608    9.0103 C   0  0  0  0  0  0  0  0  0  0  0  0
    1.4666   -2.3098    7.9711 C   0  0  0  0  0  0  0  0  0  0  0  0
    0.1904   -1.6898    8.0638 C   0  0  0  0  0  0  0  0  0  0  0  0
    1.4434   -0.1528    3.7258 C   0  0  0  0  0  0  0  0  0  0  0  0
    2.5686   -0.2185    4.1793 O   0  0  0  0  0  0  0  0  0  0  0  0
    4.4618    2.3890   -0.0043 H   0  0  0  0  0  0  0  0  0  0  0  0
    2.4031    2.2384    1.4444 H   0  0  0  0  0  0  0  0  0  0  0  0
    2.7154   -2.0521    1.4368 H   0  0  0  0  0  0  0  0  0  0  0  0
    4.7764   -1.8975   -0.0074 H   0  0  0  0  0  0  0  0  0  0  0  0
   -2.3070    0.0021   -0.2649 Au  0  0  0  0  0  0  0  0  0  0  0  0
    1.4771   -0.7783    5.9937 H   0  0  0  0  0  0  0  0  0  0  0  0
   -2.1152    0.2223    6.3812 H   0  0  0  0  0  0  0  0  0  0  0  0
   -3.3919   -0.1347    8.4881 H   0  0  0  0  0  0  0  0  0  0  0  0
   -2.4042   -1.4823   10.3301 H   0  0  0  0  0  0  0  0  0  0  0  0
   -0.5922   -2.8120   11.2343 H   0  0  0  0  0  0  0  0  0  0  0  0
    1.6606   -3.8430   11.0161 H   0  0  0  0  0  0  0  0  0  0  0  0
    2.9656   -3.5206    8.9056 H   0  0  0  0  0  0  0  0  0  0  0  0
    2.0593   -2.2115    7.0621 H   0  0  0  0  0  0  0  0  0  0  0  0
  1  2  1  0  0  0  0
  2  7  2  0  0  0  0
  2  3  1  0  0  0  0
  3  4  2  0  0  0  0
  4 29  1  0  0  0  0
  4  5  1  0  0  0  0
  5  8  1  0  0  0  0
  6 30  1  0  0  0  0
  6  5  2  0  0  0  0
  7  6  1  0  0  0  0
  8 26  1  0  0  0  0
  9  8  1  0  0  0  0
  9 11  2  0  0  0  0
 10  9  1  0  0  0  0
 11 12  2  0  0  0  0
 12 13  2  0  0  0  0
 12 14  1  0  0  0  0
 14 15  2  0  0  0  0
 15 33  1  0  0  0  0
 15 16  1  0  0  0  0
 16 17  2  0  0  0  0
 16 25  1  0  0  0  0
 17 18  1  0  0  0  0
 18 35  1  0  0  0  0
 18 19  2  0  0  0  0
 19 36  1  0  0  0  0
 20 19  1  0  0  0  0
 20 21  2  0  0  0  0
 21 37  1  0  0  0  0
 22 21  1  0  0  0  0
 22 38  1  0  0  0  0
 23 22  2  0  0  0  0
 24 25  2  0  0  0  0
 24 23  1  0  0  0  0
 25 20  1  0  0  0  0
 26 27  2  0  0  0  0
 26 14  1  0  0  0  0
 28  3  1  0  0  0  0
 31  7  1  0  0  0  0
 32 10  1  0  0  0  0
 34 17  1  0  0  0  0
 39 23  1  0  0  0  0
 40 24  1  0  0  0  0
M  END
