000-714-022.xyz
 OpenBabel07262113333D
Fc1ccc(cc1)N1C(=NC(=O)/C(=C/c2c(Cl)cccc2Cl)/C1=O)S
 34 36  0  0  0  0  0  0  0  0999 V2000
    6.1072    1.2159    0.3094 F   0  0  0  0  0  0  0  0  0  0  0  0
    4.9237    0.9306    0.8619 C   0  0  0  0  0  0  0  0  0  0  0  0
    4.7050   -0.3534    1.3662 C   0  0  0  0  0  0  0  0  0  0  0  0
    3.4660   -0.6529    1.9369 C   0  0  0  0  0  0  0  0  0  0  0  0
    2.4649    0.3279    1.9856 C   0  0  0  0  0  0  0  0  0  0  0  0
    2.7130    1.6149    1.5053 C   0  0  0  0  0  0  0  0  0  0  0  0
    3.9474    1.9210    0.9295 C   0  0  0  0  0  0  0  0  0  0  0  0
    1.1819   -0.0000    2.5277 N   0  0  0  0  0  0  0  0  0  0  0  0
    0.0000    0.0000    1.7743 C   0  0  0  0  0  0  0  0  0  0  0  0
    0.0000    0.0000    0.0000 S   0  0  0  0  0  0  0  0  0  0  0  0
   -1.1822    0.0293    2.2784 N   0  0  0  0  0  0  0  0  0  0  0  0
   -1.3994   -0.0401    3.6506 C   0  0  0  0  0  0  0  0  0  0  0  0
   -2.4695    0.2073    4.1614 O   0  0  0  0  0  0  0  0  0  0  0  0
   -0.2273   -0.5542    4.4377 C   0  0  0  0  0  0  0  0  0  0  0  0
   -0.4496   -1.2115    5.5942 C   0  0  0  0  0  0  0  0  0  0  0  0
    0.5275   -1.9208    6.4326 C   0  0  0  0  0  0  0  0  0  0  0  0
    0.5672   -1.6590    7.8174 C   0  0  0  0  0  0  0  0  0  0  0  0
   -0.4943   -0.4374    8.4719 Cl  0  0  0  0  0  0  0  0  0  0  0  0
    1.4392   -2.3214    8.6808 C   0  0  0  0  0  0  0  0  0  0  0  0
    2.2933   -3.2950    8.1661 C   0  0  0  0  0  0  0  0  0  0  0  0
    2.2699   -3.6053    6.8058 C   0  0  0  0  0  0  0  0  0  0  0  0
    1.3984   -2.9249    5.9567 C   0  0  0  0  0  0  0  0  0  0  0  0
    1.3802   -3.4085    4.2731 Cl  0  0  0  0  0  0  0  0  0  0  0  0
    1.1328   -0.2882    3.9150 C   0  0  0  0  0  0  0  0  0  0  0  0
    2.1413   -0.2717    4.5841 O   0  0  0  0  0  0  0  0  0  0  0  0
    5.5059   -1.0927    1.3186 H   0  0  0  0  0  0  0  0  0  0  0  0
    3.2697   -1.6397    2.3577 H   0  0  0  0  0  0  0  0  0  0  0  0
    1.9275    2.3698    1.5574 H   0  0  0  0  0  0  0  0  0  0  0  0
    4.1621    2.9148    0.5341 H   0  0  0  0  0  0  0  0  0  0  0  0
    1.9824   -0.9888   -0.6730 Au  0  0  0  0  0  0  0  0  0  0  0  0
   -1.4903   -1.2214    5.9377 H   0  0  0  0  0  0  0  0  0  0  0  0
    1.4402   -2.0672    9.7410 H   0  0  0  0  0  0  0  0  0  0  0  0
    2.9802   -3.8230    8.8307 H   0  0  0  0  0  0  0  0  0  0  0  0
    2.9206   -4.3766    6.3936 H   0  0  0  0  0  0  0  0  0  0  0  0
  1  2  1  0  0  0  0
  2  7  2  0  0  0  0
  2  3  1  0  0  0  0
  3  4  2  0  0  0  0
  4  5  1  0  0  0  0
  4 27  1  0  0  0  0
  5  8  1  0  0  0  0
  6 28  1  0  0  0  0
  6  5  2  0  0  0  0
  7  6  1  0  0  0  0
  8 24  1  0  0  0  0
  9 11  2  0  0  0  0
  9  8  1  0  0  0  0
 10  9  1  0  0  0  0
 11 12  2  0  0  0  0
 12 13  2  0  0  0  0
 12 14  1  0  0  0  0
 14 15  2  0  0  0  0
 15 31  1  0  0  0  0
 15 16  1  0  0  0  0
 16 17  1  0  0  0  0
 17 18  1  0  0  0  0
 17 19  2  0  0  0  0
 19 32  1  0  0  0  0
 20 19  1  0  0  0  0
 20 33  1  0  0  0  0
 21 20  2  0  0  0  0
 22 16  2  0  0  0  0
 22 21  1  0  0  0  0
 23 22  1  0  0  0  0
 24 14  1  0  0  0  0
 24 25  2  0  0  0  0
 26  3  1  0  0  0  0
 29  7  1  0  0  0  0
 30 10  1  0  0  0  0
 34 21  1  0  0  0  0
M  END
