000-888-916.xyz
 OpenBabel07262113383D
O=C1N=C(S/C/1=C/c1ccc(cc1)C)S
 24 25  0  0  0  0  0  0  0  0999 V2000
   -0.2907   -0.0035   11.0320 C   0  0  0  0  0  0  0  0  0  0  0  0
    0.0549   -0.0038    9.5668 C   0  0  0  0  0  0  0  0  0  0  0  0
    1.3870   -0.0056    9.1273 C   0  0  0  0  0  0  0  0  0  0  0  0
    1.6890   -0.0046    7.7696 C   0  0  0  0  0  0  0  0  0  0  0  0
    0.6735   -0.0021    6.7859 C   0  0  0  0  0  0  0  0  0  0  0  0
    1.1214   -0.0015    5.3995 C   0  0  0  0  0  0  0  0  0  0  0  0
    0.5055   -0.0005    4.1853 C   0  0  0  0  0  0  0  0  0  0  0  0
    1.4964   -0.0000    2.7028 S   0  0  0  0  0  0  0  0  0  0  0  0
   -0.0000   -0.0000    1.7504 C   0  0  0  0  0  0  0  0  0  0  0  0
    0.0000    0.0000    0.0000 S   0  0  0  0  0  0  0  0  0  0  0  0
   -1.1144   -0.0003    2.3884 N   0  0  0  0  0  0  0  0  0  0  0  0
   -0.9532   -0.0004    3.7843 C   0  0  0  0  0  0  0  0  0  0  0  0
   -1.8910   -0.0003    4.5524 O   0  0  0  0  0  0  0  0  0  0  0  0
   -0.6682   -0.0005    7.2317 C   0  0  0  0  0  0  0  0  0  0  0  0
   -0.9574   -0.0014    8.5914 C   0  0  0  0  0  0  0  0  0  0  0  0
   -0.9047   -0.8809   11.2943 H   0  0  0  0  0  0  0  0  0  0  0  0
   -0.8799    0.8896   11.2992 H   0  0  0  0  0  0  0  0  0  0  0  0
    0.6098   -0.0175   11.6627 H   0  0  0  0  0  0  0  0  0  0  0  0
    2.1973   -0.0078    9.8609 H   0  0  0  0  0  0  0  0  0  0  0  0
    2.7359   -0.0061    7.4544 H   0  0  0  0  0  0  0  0  0  0  0  0
    2.2159   -0.0020    5.3350 H   0  0  0  0  0  0  0  0  0  0  0  0
    2.2496    0.0050   -0.5089 Au  0  0  0  0  0  0  0  0  0  0  0  0
   -1.4687    0.0013    6.4956 H   0  0  0  0  0  0  0  0  0  0  0  0
   -2.0041   -0.0001    8.9086 H   0  0  0  0  0  0  0  0  0  0  0  0
  1 16  1  0  0  0  0
  1 17  1  0  0  0  0
  1 18  1  0  0  0  0
  2  1  1  0  0  0  0
  3  2  1  0  0  0  0
  3 19  1  0  0  0  0
  4  3  2  0  0  0  0
  5 14  2  0  0  0  0
  5  4  1  0  0  0  0
  6  5  1  0  0  0  0
  7  6  2  0  0  0  0
  8  7  1  0  0  0  0
  9 11  2  0  0  0  0
  9  8  1  0  0  0  0
 10  9  1  0  0  0  0
 11 12  2  0  0  0  0
 12  7  1  0  0  0  0
 12 13  2  0  0  0  0
 14 15  1  0  0  0  0
 15 24  1  0  0  0  0
 15  2  2  0  0  0  0
 20  4  1  0  0  0  0
 21  6  1  0  0  0  0
 22 10  1  0  0  0  0
 23 14  1  0  0  0  0
M  END
