000-827-548.xyz
 OpenBabel07262113373D
O=C1N=C(S)N(C(=O)/C/1=C\c1c2ccccc2cc2c1cccc2)c1ccccc1F
 46 50  0  0  0  0  0  0  0  0999 V2000
    2.5848   -2.3410    1.8506 F   0  0  0  0  0  0  0  0  0  0  0  0
    3.0961   -1.2327    1.3005 C   0  0  0  0  0  0  0  0  0  0  0  0
    4.2480   -1.3093    0.5285 C   0  0  0  0  0  0  0  0  0  0  0  0
    4.7597   -0.1378   -0.0368 C   0  0  0  0  0  0  0  0  0  0  0  0
    4.1266    1.0904    0.1771 C   0  0  0  0  0  0  0  0  0  0  0  0
    2.9740    1.1521    0.9616 C   0  0  0  0  0  0  0  0  0  0  0  0
    2.4450   -0.0137    1.5183 C   0  0  0  0  0  0  0  0  0  0  0  0
    1.2682    0.0000    2.3315 N   0  0  0  0  0  0  0  0  0  0  0  0
   -0.0000   -0.0000    1.7691 C   0  0  0  0  0  0  0  0  0  0  0  0
    0.0000    0.0000    0.0000 S   0  0  0  0  0  0  0  0  0  0  0  0
   -1.1053    0.0079    2.4403 N   0  0  0  0  0  0  0  0  0  0  0  0
   -1.1051   -0.0671    3.8302 C   0  0  0  0  0  0  0  0  0  0  0  0
   -2.1385    0.0277    4.4645 O   0  0  0  0  0  0  0  0  0  0  0  0
    0.2168   -0.3215    4.5014 C   0  0  0  0  0  0  0  0  0  0  0  0
    0.1907   -0.6599    5.8199 C   0  0  0  0  0  0  0  0  0  0  0  0
    1.2503   -1.0553    6.7408 C   0  0  0  0  0  0  0  0  0  0  0  0
    2.2192   -2.0479    6.4200 C   0  0  0  0  0  0  0  0  0  0  0  0
    2.2250   -2.7710    5.1887 C   0  0  0  0  0  0  0  0  0  0  0  0
    3.1933   -3.7025    4.9068 C   0  0  0  0  0  0  0  0  0  0  0  0
    4.2184   -3.9960    5.8492 C   0  0  0  0  0  0  0  0  0  0  0  0
    4.2260   -3.3616    7.0641 C   0  0  0  0  0  0  0  0  0  0  0  0
    3.2324   -2.3855    7.3923 C   0  0  0  0  0  0  0  0  0  0  0  0
    3.2275   -1.7608    8.6448 C   0  0  0  0  0  0  0  0  0  0  0  0
    2.2544   -0.8185    8.9969 C   0  0  0  0  0  0  0  0  0  0  0  0
    2.2532   -0.1981   10.2853 C   0  0  0  0  0  0  0  0  0  0  0  0
    1.3045    0.7340   10.6199 C   0  0  0  0  0  0  0  0  0  0  0  0
    0.3102    1.1028    9.6707 C   0  0  0  0  0  0  0  0  0  0  0  0
    0.2875    0.5373    8.4182 C   0  0  0  0  0  0  0  0  0  0  0  0
    1.2427   -0.4561    8.0343 C   0  0  0  0  0  0  0  0  0  0  0  0
    1.4603   -0.1228    3.7352 C   0  0  0  0  0  0  0  0  0  0  0  0
    2.5815   -0.0615    4.1875 O   0  0  0  0  0  0  0  0  0  0  0  0
    4.7255   -2.2792    0.3811 H   0  0  0  0  0  0  0  0  0  0  0  0
    5.6641   -0.1879   -0.6468 H   0  0  0  0  0  0  0  0  0  0  0  0
    4.5342    2.0025   -0.2624 H   0  0  0  0  0  0  0  0  0  0  0  0
    2.4652    2.0990    1.1476 H   0  0  0  0  0  0  0  0  0  0  0  0
   -2.3078   -0.0381   -0.2596 Au  0  0  0  0  0  0  0  0  0  0  0  0
   -0.8195   -0.6096    6.2424 H   0  0  0  0  0  0  0  0  0  0  0  0
    1.4405   -2.5903    4.4575 H   0  0  0  0  0  0  0  0  0  0  0  0
    3.1732   -4.2214    3.9463 H   0  0  0  0  0  0  0  0  0  0  0  0
    4.9839   -4.7367    5.6066 H   0  0  0  0  0  0  0  0  0  0  0  0
    4.9897   -3.5929    7.8109 H   0  0  0  0  0  0  0  0  0  0  0  0
    4.0032   -2.0202    9.3704 H   0  0  0  0  0  0  0  0  0  0  0  0
    3.0305   -0.4841   10.9984 H   0  0  0  0  0  0  0  0  0  0  0  0
    1.3112    1.2009   11.6073 H   0  0  0  0  0  0  0  0  0  0  0  0
   -0.4385    1.8518    9.9389 H   0  0  0  0  0  0  0  0  0  0  0  0
   -0.4664    0.8648    7.7017 H   0  0  0  0  0  0  0  0  0  0  0  0
  2  7  1  0  0  0  0
  2  1  1  0  0  0  0
  3  2  2  0  0  0  0
  4  5  2  0  0  0  0
  4  3  1  0  0  0  0
  5  6  1  0  0  0  0
  6 35  1  0  0  0  0
  6  7  2  0  0  0  0
  7  8  1  0  0  0  0
  8 30  1  0  0  0  0
  9  8  1  0  0  0  0
  9 11  2  0  0  0  0
 10  9  1  0  0  0  0
 11 12  2  0  0  0  0
 12 13  2  0  0  0  0
 12 14  1  0  0  0  0
 14 15  2  0  0  0  0
 15 37  1  0  0  0  0
 15 16  1  0  0  0  0
 16 29  1  0  0  0  0
 17 16  2  0  0  0  0
 17 22  1  0  0  0  0
 18 17  1  0  0  0  0
 19 18  2  0  0  0  0
 19 20  1  0  0  0  0
 20 21  2  0  0  0  0
 21 22  1  0  0  0  0
 21 41  1  0  0  0  0
 22 23  2  0  0  0  0
 23 24  1  0  0  0  0
 23 42  1  0  0  0  0
 24 25  2  0  0  0  0
 25 26  1  0  0  0  0
 25 43  1  0  0  0  0
 26 44  1  0  0  0  0
 27 45  1  0  0  0  0
 27 26  2  0  0  0  0
 28 27  1  0  0  0  0
 29 28  2  0  0  0  0
 29 24  1  0  0  0  0
 30 31  2  0  0  0  0
 30 14  1  0  0  0  0
 32  3  1  0  0  0  0
 33  4  1  0  0  0  0
 34  5  1  0  0  0  0
 36 10  1  0  0  0  0
 38 18  1  0  0  0  0
 39 19  1  0  0  0  0
 40 20  1  0  0  0  0
 46 28  1  0  0  0  0
M  END
