000-712-385.xyz
 OpenBabel07262113333D
Cc1cccc(c1)N1C(=NC(=O)/C(=C\c2cccn2C)/C1=O)S
 38 40  0  0  0  0  0  0  0  0999 V2000
    4.1912   -3.2770    0.3728 C   0  0  0  0  0  0  0  0  0  0  0  0
    3.9435   -1.8890    0.9033 C   0  0  0  0  0  0  0  0  0  0  0  0
    4.9000   -0.8736    0.7799 C   0  0  0  0  0  0  0  0  0  0  0  0
    4.6542    0.4127    1.2789 C   0  0  0  0  0  0  0  0  0  0  0  0
    3.4345    0.7113    1.8916 C   0  0  0  0  0  0  0  0  0  0  0  0
    2.4610   -0.2939    1.9893 C   0  0  0  0  0  0  0  0  0  0  0  0
    2.7228   -1.5807    1.5253 C   0  0  0  0  0  0  0  0  0  0  0  0
    1.1719   -0.0000    2.5392 N   0  0  0  0  0  0  0  0  0  0  0  0
    0.0000    0.0000    1.7816 C   0  0  0  0  0  0  0  0  0  0  0  0
    0.0000    0.0000    0.0000 S   0  0  0  0  0  0  0  0  0  0  0  0
   -1.1813   -0.0165    2.2812 N   0  0  0  0  0  0  0  0  0  0  0  0
   -1.4093   -0.0385    3.6580 C   0  0  0  0  0  0  0  0  0  0  0  0
   -2.5243   -0.2788    4.0903 O   0  0  0  0  0  0  0  0  0  0  0  0
   -0.2489    0.2888    4.5171 C   0  0  0  0  0  0  0  0  0  0  0  0
   -0.2777    0.5926    5.8633 C   0  0  0  0  0  0  0  0  0  0  0  0
   -1.2987    0.7146    6.8361 C   0  0  0  0  0  0  0  0  0  0  0  0
   -2.6964    0.5043    6.8384 C   0  0  0  0  0  0  0  0  0  0  0  0
   -3.1762    0.7993    8.1213 C   0  0  0  0  0  0  0  0  0  0  0  0
   -2.0786    1.1818    8.8949 C   0  0  0  0  0  0  0  0  0  0  0  0
   -0.9570    1.1304    8.1366 N   0  0  0  0  0  0  0  0  0  0  0  0
    0.3732    1.4668    8.6071 C   0  0  0  0  0  0  0  0  0  0  0  0
    1.1084    0.2592    3.9351 C   0  0  0  0  0  0  0  0  0  0  0  0
    2.1424    0.4111    4.5625 O   0  0  0  0  0  0  0  0  0  0  0  0
    3.4862   -3.5182   -0.4400 H   0  0  0  0  0  0  0  0  0  0  0  0
    5.2119   -3.3835   -0.0212 H   0  0  0  0  0  0  0  0  0  0  0  0
    4.0476   -4.0345    1.1599 H   0  0  0  0  0  0  0  0  0  0  0  0
    5.8560   -1.0921    0.2977 H   0  0  0  0  0  0  0  0  0  0  0  0
    5.4229    1.1847    1.1980 H   0  0  0  0  0  0  0  0  0  0  0  0
    3.2308    1.7014    2.2991 H   0  0  0  0  0  0  0  0  0  0  0  0
    1.9465   -2.3429    1.6178 H   0  0  0  0  0  0  0  0  0  0  0  0
    1.9972    0.9613   -0.6759 Au  0  0  0  0  0  0  0  0  0  0  0  0
    0.7307    0.7911    6.2392 H   0  0  0  0  0  0  0  0  0  0  0  0
   -3.2429    0.1599    5.9677 H   0  0  0  0  0  0  0  0  0  0  0  0
   -4.2058    0.7389    8.4666 H   0  0  0  0  0  0  0  0  0  0  0  0
   -2.0294    1.4848    9.9395 H   0  0  0  0  0  0  0  0  0  0  0  0
    1.0573    0.6099    8.5134 H   0  0  0  0  0  0  0  0  0  0  0  0
    0.3115    1.7485    9.6659 H   0  0  0  0  0  0  0  0  0  0  0  0
    0.7932    2.3138    8.0438 H   0  0  0  0  0  0  0  0  0  0  0  0
  1  2  1  0  0  0  0
  1 26  1  0  0  0  0
  2  7  1  0  0  0  0
  3  2  2  0  0  0  0
  3  4  1  0  0  0  0
  4  5  2  0  0  0  0
  5  6  1  0  0  0  0
  5 29  1  0  0  0  0
  6  8  1  0  0  0  0
  7 30  1  0  0  0  0
  7  6  2  0  0  0  0
  8 22  1  0  0  0  0
  9 11  2  0  0  0  0
  9  8  1  0  0  0  0
 10  9  1  0  0  0  0
 11 12  2  0  0  0  0
 12 13  2  0  0  0  0
 12 14  1  0  0  0  0
 14 15  2  0  0  0  0
 15 32  1  0  0  0  0
 15 16  1  0  0  0  0
 16 17  2  0  0  0  0
 16 20  1  0  0  0  0
 17 18  1  0  0  0  0
 18 34  1  0  0  0  0
 18 19  2  0  0  0  0
 19 35  1  0  0  0  0
 20 21  1  0  0  0  0
 20 19  1  0  0  0  0
 21 37  1  0  0  0  0
 22 14  1  0  0  0  0
 22 23  2  0  0  0  0
 24  1  1  0  0  0  0
 25  1  1  0  0  0  0
 27  3  1  0  0  0  0
 28  4  1  0  0  0  0
 31 10  1  0  0  0  0
 33 17  1  0  0  0  0
 36 21  1  0  0  0  0
 38 21  1  0  0  0  0
M  END
