000-722-718.xyz
 OpenBabel07262113333D
O=C1N=C(S)N(C(=O)/C/1=C\C=C\c1ccco1)c1ccccc1C
 38 40  0  0  0  0  0  0  0  0999 V2000
    2.5743    2.4797    1.6444 C   0  0  0  0  0  0  0  0  0  0  0  0
    3.0838    1.1595    1.1375 C   0  0  0  0  0  0  0  0  0  0  0  0
    4.2092    1.0698    0.3087 C   0  0  0  0  0  0  0  0  0  0  0  0
    4.6797   -0.1638   -0.1485 C   0  0  0  0  0  0  0  0  0  0  0  0
    4.0312   -1.3447    0.2196 C   0  0  0  0  0  0  0  0  0  0  0  0
    2.9090   -1.2803    1.0448 C   0  0  0  0  0  0  0  0  0  0  0  0
    2.4409   -0.0413    1.4866 C   0  0  0  0  0  0  0  0  0  0  0  0
    1.2702    0.0000    2.3270 N   0  0  0  0  0  0  0  0  0  0  0  0
    0.0000    0.0000    1.7726 C   0  0  0  0  0  0  0  0  0  0  0  0
    0.0000    0.0000    0.0000 S   0  0  0  0  0  0  0  0  0  0  0  0
   -1.1064    0.0136    2.4410 N   0  0  0  0  0  0  0  0  0  0  0  0
   -1.1028    0.0389    3.8337 C   0  0  0  0  0  0  0  0  0  0  0  0
   -2.1478    0.0207    4.4597 O   0  0  0  0  0  0  0  0  0  0  0  0
    0.2269    0.1026    4.5197 C   0  0  0  0  0  0  0  0  0  0  0  0
    0.2256    0.1670    5.8902 C   0  0  0  0  0  0  0  0  0  0  0  0
    1.3357    0.2382    6.7851 C   0  0  0  0  0  0  0  0  0  0  0  0
    1.1329    0.2977    8.1340 C   0  0  0  0  0  0  0  0  0  0  0  0
    2.1598    0.3720    9.1232 C   0  0  0  0  0  0  0  0  0  0  0  0
    2.1080    0.4366   10.5048 C   0  0  0  0  0  0  0  0  0  0  0  0
    3.4555    0.4939   10.9624 C   0  0  0  0  0  0  0  0  0  0  0  0
    4.2354    0.4607    9.8342 C   0  0  0  0  0  0  0  0  0  0  0  0
    3.4688    0.3877    8.7268 O   0  0  0  0  0  0  0  0  0  0  0  0
    1.4656    0.0914    3.7275 C   0  0  0  0  0  0  0  0  0  0  0  0
    2.6010    0.1550    4.1632 O   0  0  0  0  0  0  0  0  0  0  0  0
    3.1380    3.3151    1.2066 H   0  0  0  0  0  0  0  0  0  0  0  0
    1.5096    2.6170    1.3969 H   0  0  0  0  0  0  0  0  0  0  0  0
    2.6720    2.5355    2.7406 H   0  0  0  0  0  0  0  0  0  0  0  0
    4.7249    1.9883    0.0178 H   0  0  0  0  0  0  0  0  0  0  0  0
    5.5594   -0.2015   -0.7953 H   0  0  0  0  0  0  0  0  0  0  0  0
    4.3969   -2.3116   -0.1323 H   0  0  0  0  0  0  0  0  0  0  0  0
    2.3798   -2.1852    1.3485 H   0  0  0  0  0  0  0  0  0  0  0  0
   -2.3067    0.0724   -0.2600 Au  0  0  0  0  0  0  0  0  0  0  0  0
   -0.7777    0.1611    6.3320 H   0  0  0  0  0  0  0  0  0  0  0  0
    2.3453    0.2447    6.3750 H   0  0  0  0  0  0  0  0  0  0  0  0
    0.1111    0.2899    8.5268 H   0  0  0  0  0  0  0  0  0  0  0  0
    1.2016    0.4412   11.1061 H   0  0  0  0  0  0  0  0  0  0  0  0
    3.8058    0.5521   11.9902 H   0  0  0  0  0  0  0  0  0  0  0  0
    5.3103    0.4813    9.6735 H   0  0  0  0  0  0  0  0  0  0  0  0
  1 27  1  0  0  0  0
  2  7  1  0  0  0  0
  2  1  1  0  0  0  0
  3  2  2  0  0  0  0
  4  5  2  0  0  0  0
  4  3  1  0  0  0  0
  5  6  1  0  0  0  0
  6 31  1  0  0  0  0
  6  7  2  0  0  0  0
  7  8  1  0  0  0  0
  8 23  1  0  0  0  0
  9  8  1  0  0  0  0
  9 11  2  0  0  0  0
 10  9  1  0  0  0  0
 11 12  2  0  0  0  0
 12 13  2  0  0  0  0
 12 14  1  0  0  0  0
 14 15  2  0  0  0  0
 15 33  1  0  0  0  0
 15 16  1  0  0  0  0
 16 17  2  0  0  0  0
 17 35  1  0  0  0  0
 17 18  1  0  0  0  0
 18 19  2  0  0  0  0
 19 20  1  0  0  0  0
 19 36  1  0  0  0  0
 20 37  1  0  0  0  0
 21 20  2  0  0  0  0
 22 18  1  0  0  0  0
 22 21  1  0  0  0  0
 23 24  2  0  0  0  0
 23 14  1  0  0  0  0
 25  1  1  0  0  0  0
 26  1  1  0  0  0  0
 28  3  1  0  0  0  0
 29  4  1  0  0  0  0
 30  5  1  0  0  0  0
 32 10  1  0  0  0  0
 34 16  1  0  0  0  0
 38 21  1  0  0  0  0
M  END
