000-747-991.xyz
 OpenBabel07262113343D
CN1CCN(CC1)N/C=C/1\C(=O)N=C(N(C1=O)c1ccccc1)S
 43 45  0  0  0  0  0  0  0  0999 V2000
   -2.8860    0.0523   11.0604 C   0  0  0  0  0  0  0  0  0  0  0  0
   -1.4531    0.0481   10.8356 N   0  0  0  0  0  0  0  0  0  0  0  0
   -0.9332   -1.1522   10.1997 C   0  0  0  0  0  0  0  0  0  0  0  0
   -1.1742   -1.1917    8.6850 C   0  0  0  0  0  0  0  0  0  0  0  0
   -0.6127    0.0191    8.0781 N   0  0  0  0  0  0  0  0  0  0  0  0
   -1.1709    1.2433    8.6607 C   0  0  0  0  0  0  0  0  0  0  0  0
   -0.9299    1.2341   10.1757 C   0  0  0  0  0  0  0  0  0  0  0  0
   -0.7616    0.0061    6.6934 N   0  0  0  0  0  0  0  0  0  0  0  0
    0.2896    0.0058    5.8860 C   0  0  0  0  0  0  0  0  0  0  0  0
    0.2004    0.0015    4.4993 C   0  0  0  0  0  0  0  0  0  0  0  0
   -1.1008    0.0003    3.8283 C   0  0  0  0  0  0  0  0  0  0  0  0
   -2.1651   -0.0001    4.4583 O   0  0  0  0  0  0  0  0  0  0  0  0
   -1.1126    0.0001    2.4407 N   0  0  0  0  0  0  0  0  0  0  0  0
   -0.0000   -0.0000    1.7743 C   0  0  0  0  0  0  0  0  0  0  0  0
    0.0000    0.0000    0.0000 S   0  0  0  0  0  0  0  0  0  0  0  0
    1.2621   -0.0000    2.3343 N   0  0  0  0  0  0  0  0  0  0  0  0
    1.4460    0.0011    3.7495 C   0  0  0  0  0  0  0  0  0  0  0  0
    2.5724    0.0019    4.2109 O   0  0  0  0  0  0  0  0  0  0  0  0
    2.4413   -0.0004    1.5100 C   0  0  0  0  0  0  0  0  0  0  0  0
    3.0114    1.2135    1.1184 C   0  0  0  0  0  0  0  0  0  0  0  0
    4.1525    1.2104    0.3155 C   0  0  0  0  0  0  0  0  0  0  0  0
    4.7219   -0.0014   -0.0871 C   0  0  0  0  0  0  0  0  0  0  0  0
    4.1519   -1.2126    0.3160 C   0  0  0  0  0  0  0  0  0  0  0  0
    3.0109   -1.2148    1.1190 C   0  0  0  0  0  0  0  0  0  0  0  0
   -3.1670   -0.8301   11.6570 H   0  0  0  0  0  0  0  0  0  0  0  0
   -3.1648    0.9474   11.6388 H   0  0  0  0  0  0  0  0  0  0  0  0
   -3.5124    0.0436   10.1420 H   0  0  0  0  0  0  0  0  0  0  0  0
   -1.3803   -2.0418   10.6700 H   0  0  0  0  0  0  0  0  0  0  0  0
    0.1561   -1.1957   10.3732 H   0  0  0  0  0  0  0  0  0  0  0  0
   -0.6741   -2.0648    8.2396 H   0  0  0  0  0  0  0  0  0  0  0  0
   -2.2602   -1.2803    8.4643 H   0  0  0  0  0  0  0  0  0  0  0  0
   -2.2567    1.3303    8.4383 H   0  0  0  0  0  0  0  0  0  0  0  0
   -0.6685    2.1059    8.1976 H   0  0  0  0  0  0  0  0  0  0  0  0
   -1.3746    2.1341   10.6279 H   0  0  0  0  0  0  0  0  0  0  0  0
    0.1595    1.2780   10.3484 H   0  0  0  0  0  0  0  0  0  0  0  0
   -1.6874    0.0042    6.2227 H   0  0  0  0  0  0  0  0  0  0  0  0
    1.2731    0.0096    6.3650 H   0  0  0  0  0  0  0  0  0  0  0  0
   -2.3061    0.0018   -0.2643 Au  0  0  0  0  0  0  0  0  0  0  0  0
    2.5522    2.1486    1.4428 H   0  0  0  0  0  0  0  0  0  0  0  0
    4.5993    2.1572    0.0043 H   0  0  0  0  0  0  0  0  0  0  0  0
    5.6153   -0.0017   -0.7160 H   0  0  0  0  0  0  0  0  0  0  0  0
    4.5983   -2.1598    0.0052 H   0  0  0  0  0  0  0  0  0  0  0  0
    2.5513   -2.1496    1.4439 H   0  0  0  0  0  0  0  0  0  0  0  0
  1 26  1  0  0  0  0
  1 25  1  0  0  0  0
  2  1  1  0  0  0  0
  3 29  1  0  0  0  0
  3 28  1  0  0  0  0
  3  2  1  0  0  0  0
  4  3  1  0  0  0  0
  5  6  1  0  0  0  0
  5  4  1  0  0  0  0
  6  7  1  0  0  0  0
  7 35  1  0  0  0  0
  7 34  1  0  0  0  0
  7  2  1  0  0  0  0
  8  5  1  0  0  0  0
  9 37  1  0  0  0  0
  9  8  1  0  0  0  0
 10  9  2  0  0  0  0
 11 12  2  0  0  0  0
 11 10  1  0  0  0  0
 13 11  2  0  0  0  0
 14 16  1  0  0  0  0
 14 13  2  0  0  0  0
 15 14  1  0  0  0  0
 16 17  1  0  0  0  0
 17 18  2  0  0  0  0
 17 10  1  0  0  0  0
 19 16  1  0  0  0  0
 20 39  1  0  0  0  0
 20 19  2  0  0  0  0
 21 20  1  0  0  0  0
 22 21  2  0  0  0  0
 22 23  1  0  0  0  0
 23 24  2  0  0  0  0
 24 43  1  0  0  0  0
 24 19  1  0  0  0  0
 27  1  1  0  0  0  0
 30  4  1  0  0  0  0
 31  4  1  0  0  0  0
 32  6  1  0  0  0  0
 33  6  1  0  0  0  0
 36  8  1  0  0  0  0
 38 15  1  0  0  0  0
 40 21  1  0  0  0  0
 41 22  1  0  0  0  0
 42 23  1  0  0  0  0
M  END
