000-838-090.xyz
 OpenBabel07262113373D
Cc1ccc(cc1)N1C(=NC(=O)/C(=C\c2cc(n(c2C)C)C)/C1=O)S
 44 46  0  0  0  0  0  0  0  0999 V2000
    4.6643    1.1133    8.4535 C   0  0  0  0  0  0  0  0  0  0  0  0
    3.2517    1.1194    7.9731 C   0  0  0  0  0  0  0  0  0  0  0  0
    2.7389    0.7483    6.7593 C   0  0  0  0  0  0  0  0  0  0  0  0
    1.3087    0.9338    6.8019 C   0  0  0  0  0  0  0  0  0  0  0  0
    0.2839    0.7302    5.8365 C   0  0  0  0  0  0  0  0  0  0  0  0
    0.2510    0.3535    4.5100 C   0  0  0  0  0  0  0  0  0  0  0  0
    1.4074   -0.0206    3.6600 C   0  0  0  0  0  0  0  0  0  0  0  0
    2.5120   -0.2992    4.0923 O   0  0  0  0  0  0  0  0  0  0  0  0
    1.1811   -0.0000    2.2809 N   0  0  0  0  0  0  0  0  0  0  0  0
   -0.0000   -0.0000    1.7826 C   0  0  0  0  0  0  0  0  0  0  0  0
    0.0000    0.0000    0.0000 S   0  0  0  0  0  0  0  0  0  0  0  0
   -1.1698   -0.0143    2.5411 N   0  0  0  0  0  0  0  0  0  0  0  0
   -1.1072    0.2859    3.9318 C   0  0  0  0  0  0  0  0  0  0  0  0
   -2.1443    0.4420    4.5521 O   0  0  0  0  0  0  0  0  0  0  0  0
   -2.4515   -0.3432    1.9989 C   0  0  0  0  0  0  0  0  0  0  0  0
   -2.6945   -1.6375    1.5395 C   0  0  0  0  0  0  0  0  0  0  0  0
   -3.9151   -1.9466    0.9358 C   0  0  0  0  0  0  0  0  0  0  0  0
   -4.9201   -0.9801    0.7930 C   0  0  0  0  0  0  0  0  0  0  0  0
   -6.2473   -1.3212    0.1664 C   0  0  0  0  0  0  0  0  0  0  0  0
   -4.6706    0.3124    1.2906 C   0  0  0  0  0  0  0  0  0  0  0  0
   -3.4527    0.6323    1.8959 C   0  0  0  0  0  0  0  0  0  0  0  0
    1.0098    1.4247    8.0976 C   0  0  0  0  0  0  0  0  0  0  0  0
   -0.2886    1.8018    8.7245 C   0  0  0  0  0  0  0  0  0  0  0  0
    2.1821    1.5333    8.7820 N   0  0  0  0  0  0  0  0  0  0  0  0
    2.2867    1.9958   10.1506 C   0  0  0  0  0  0  0  0  0  0  0  0
    4.8118    0.4542    9.3268 H   0  0  0  0  0  0  0  0  0  0  0  0
    5.3134    0.7453    7.6477 H   0  0  0  0  0  0  0  0  0  0  0  0
    5.0208    2.1200    8.7334 H   0  0  0  0  0  0  0  0  0  0  0  0
    3.2844    0.3617    5.9064 H   0  0  0  0  0  0  0  0  0  0  0  0
   -0.7241    0.9357    6.2104 H   0  0  0  0  0  0  0  0  0  0  0  0
   -2.0203    0.9041   -0.6829 Au  0  0  0  0  0  0  0  0  0  0  0  0
   -1.9099   -2.3909    1.6240 H   0  0  0  0  0  0  0  0  0  0  0  0
   -4.0858   -2.9594    0.5625 H   0  0  0  0  0  0  0  0  0  0  0  0
   -6.1613   -2.1742   -0.5227 H   0  0  0  0  0  0  0  0  0  0  0  0
   -6.9864   -1.5947    0.9392 H   0  0  0  0  0  0  0  0  0  0  0  0
   -6.6620   -0.4677   -0.3913 H   0  0  0  0  0  0  0  0  0  0  0  0
   -5.4460    1.0789    1.2110 H   0  0  0  0  0  0  0  0  0  0  0  0
   -3.2698    1.6315    2.2913 H   0  0  0  0  0  0  0  0  0  0  0  0
   -1.1244    1.6284    8.0363 H   0  0  0  0  0  0  0  0  0  0  0  0
   -0.3092    2.8676    9.0117 H   0  0  0  0  0  0  0  0  0  0  0  0
   -0.4832    1.2165    9.6397 H   0  0  0  0  0  0  0  0  0  0  0  0
    3.3407    2.0333   10.4471 H   0  0  0  0  0  0  0  0  0  0  0  0
    1.7560    1.3207   10.8410 H   0  0  0  0  0  0  0  0  0  0  0  0
    1.8609    3.0056   10.2594 H   0  0  0  0  0  0  0  0  0  0  0  0
  1 28  1  0  0  0  0
  1 26  1  0  0  0  0
  2  1  1  0  0  0  0
  2 24  1  0  0  0  0
  3  4  1  0  0  0  0
  3  2  2  0  0  0  0
  4 22  2  0  0  0  0
  5 30  1  0  0  0  0
  5  4  1  0  0  0  0
  6  5  2  0  0  0  0
  7  8  2  0  0  0  0
  7  6  1  0  0  0  0
  9  7  2  0  0  0  0
 10  9  2  0  0  0  0
 10 12  1  0  0  0  0
 11 10  1  0  0  0  0
 12 13  1  0  0  0  0
 13  6  1  0  0  0  0
 13 14  2  0  0  0  0
 15 12  1  0  0  0  0
 16 32  1  0  0  0  0
 16 15  2  0  0  0  0
 17 16  1  0  0  0  0
 18 17  2  0  0  0  0
 18 20  1  0  0  0  0
 19 18  1  0  0  0  0
 19 35  1  0  0  0  0
 20 21  2  0  0  0  0
 21 15  1  0  0  0  0
 21 38  1  0  0  0  0
 22 23  1  0  0  0  0
 22 24  1  0  0  0  0
 23 40  1  0  0  0  0
 23 41  1  0  0  0  0
 24 25  1  0  0  0  0
 25 44  1  0  0  0  0
 25 42  1  0  0  0  0
 25 43  1  0  0  0  0
 27  1  1  0  0  0  0
 29  3  1  0  0  0  0
 31 11  1  0  0  0  0
 33 17  1  0  0  0  0
 34 19  1  0  0  0  0
 36 19  1  0  0  0  0
 37 20  1  0  0  0  0
 39 23  1  0  0  0  0
M  END
