000-752-603.xyz
 OpenBabel07262113353D
SC1=NC(=O)/C(=C\c2nc3c([nH]2)cccc3)/C(=N1)O
 27 29  0  0  0  0  0  0  0  0999 V2000
    2.6637   -0.0526    3.9895 O   0  0  0  0  0  0  0  0  0  0  0  0
    1.4129   -0.0952    3.5254 C   0  0  0  0  0  0  0  0  0  0  0  0
    1.2783   -0.0000    2.2402 N   0  0  0  0  0  0  0  0  0  0  0  0
   -0.0000   -0.0000    1.7536 C   0  0  0  0  0  0  0  0  0  0  0  0
    0.0000    0.0000    0.0000 S   0  0  0  0  0  0  0  0  0  0  0  0
   -1.1202    0.0245    2.4337 N   0  0  0  0  0  0  0  0  0  0  0  0
   -1.0749   -0.0362    3.8003 C   0  0  0  0  0  0  0  0  0  0  0  0
   -2.1148    0.0456    4.4603 O   0  0  0  0  0  0  0  0  0  0  0  0
    0.2709   -0.2364    4.4376 C   0  0  0  0  0  0  0  0  0  0  0  0
    0.4985   -0.6018    5.7447 C   0  0  0  0  0  0  0  0  0  0  0  0
   -0.3481   -0.7950    6.8782 C   0  0  0  0  0  0  0  0  0  0  0  0
    0.1579   -1.2031    8.0510 N   0  0  0  0  0  0  0  0  0  0  0  0
   -0.9071   -1.2725    8.8939 C   0  0  0  0  0  0  0  0  0  0  0  0
   -0.9695   -1.6436   10.2561 C   0  0  0  0  0  0  0  0  0  0  0  0
   -2.2062   -1.6211   10.8766 C   0  0  0  0  0  0  0  0  0  0  0  0
   -3.3838   -1.2379   10.1767 C   0  0  0  0  0  0  0  0  0  0  0  0
   -3.3583   -0.8674    8.8400 C   0  0  0  0  0  0  0  0  0  0  0  0
   -2.1062   -0.8886    8.2027 C   0  0  0  0  0  0  0  0  0  0  0  0
   -1.7080   -0.5935    6.9352 N   0  0  0  0  0  0  0  0  0  0  0  0
    2.6693    0.0253    4.9529 H   0  0  0  0  0  0  0  0  0  0  0  0
   -2.2780    0.0073   -0.3811 Au  0  0  0  0  0  0  0  0  0  0  0  0
    1.5255   -0.8334    6.0459 H   0  0  0  0  0  0  0  0  0  0  0  0
   -0.0610   -1.9367   10.7847 H   0  0  0  0  0  0  0  0  0  0  0  0
   -2.2892   -1.9029   11.9286 H   0  0  0  0  0  0  0  0  0  0  0  0
   -4.3364   -1.2367   10.7117 H   0  0  0  0  0  0  0  0  0  0  0  0
   -4.2653   -0.5744    8.3086 H   0  0  0  0  0  0  0  0  0  0  0  0
   -2.2103   -0.2827    6.0814 H   0  0  0  0  0  0  0  0  0  0  0  0
  1 20  1  0  0  0  0
  2  1  1  0  0  0  0
  2  9  1  0  0  0  0
  3  2  2  0  0  0  0
  4  3  2  0  0  0  0
  4  6  2  0  0  0  0
  5  4  1  0  0  0  0
  6  7  2  0  0  0  0
  7  9  1  0  0  0  0
  7  8  2  0  0  0  0
  9 10  2  0  0  0  0
 10 22  1  0  0  0  0
 10 11  1  0  0  0  0
 11 19  1  0  0  0  0
 11 12  2  0  0  0  0
 12 13  2  0  0  0  0
 13 14  1  0  0  0  0
 14 23  1  0  0  0  0
 14 15  2  0  0  0  0
 15 24  1  0  0  0  0
 16 25  1  0  0  0  0
 16 15  1  0  0  0  0
 17 16  1  0  0  0  0
 18 17  2  0  0  0  0
 18 13  1  0  0  0  0
 19 18  1  0  0  0  0
 21  5  1  0  0  0  0
 26 17  1  0  0  0  0
 27 19  1  0  0  0  0
M  RAD  1  16   2
M  END
