000-727-967.xyz
 OpenBabel07262113343D
O=C1N=C(S)N(C(=O)/C/1=C\c1cc2CCCN3c2c(c1)CCC3)c1ccccc1
 50 54  0  0  0  0  0  0  0  0999 V2000
    0.0000    0.0000    0.0000 S   0  0  0  0  0  0  0  0  0  0  0  0
    0.0000   -0.0000    1.7750 C   0  0  0  0  0  0  0  0  0  0  0  0
    1.1047   -0.0000    2.4426 N   0  0  0  0  0  0  0  0  0  0  0  0
    1.1019   -0.0006    3.8369 C   0  0  0  0  0  0  0  0  0  0  0  0
    2.1591    0.0006    4.4449 O   0  0  0  0  0  0  0  0  0  0  0  0
   -0.2273   -0.0033    4.5419 C   0  0  0  0  0  0  0  0  0  0  0  0
   -0.1419   -0.0036    5.9211 C   0  0  0  0  0  0  0  0  0  0  0  0
   -1.0238   -0.0060    7.0526 C   0  0  0  0  0  0  0  0  0  0  0  0
   -0.3950   -0.0000    8.3271 C   0  0  0  0  0  0  0  0  0  0  0  0
   -1.0976    0.0124    9.5170 C   0  0  0  0  0  0  0  0  0  0  0  0
   -0.3986    0.0413   10.8543 C   0  0  0  0  0  0  0  0  0  0  0  0
   -1.2247   -0.7207   11.8878 C   0  0  0  0  0  0  0  0  0  0  0  0
   -2.6261   -0.1313   11.9596 C   0  0  0  0  0  0  0  0  0  0  0  0
   -3.2494   -0.0105   10.6478 N   0  0  0  0  0  0  0  0  0  0  0  0
   -4.7020    0.1111   10.6680 C   0  0  0  0  0  0  0  0  0  0  0  0
   -5.2555    0.6998    9.3784 C   0  0  0  0  0  0  0  0  0  0  0  0
   -4.6903   -0.0606    8.1814 C   0  0  0  0  0  0  0  0  0  0  0  0
   -3.1812   -0.0294    8.2158 C   0  0  0  0  0  0  0  0  0  0  0  0
   -2.4420   -0.0142    7.0464 C   0  0  0  0  0  0  0  0  0  0  0  0
   -2.5238   -0.0090    9.4823 C   0  0  0  0  0  0  0  0  0  0  0  0
   -1.4556   -0.0034    3.7482 C   0  0  0  0  0  0  0  0  0  0  0  0
   -2.6053   -0.0055    4.1565 O   0  0  0  0  0  0  0  0  0  0  0  0
   -1.2621   -0.0005    2.3383 N   0  0  0  0  0  0  0  0  0  0  0  0
   -2.4392    0.0005    1.5102 C   0  0  0  0  0  0  0  0  0  0  0  0
   -3.0111   -1.2129    1.1193 C   0  0  0  0  0  0  0  0  0  0  0  0
   -4.1457   -1.2093    0.3075 C   0  0  0  0  0  0  0  0  0  0  0  0
   -4.7072    0.0026   -0.1058 C   0  0  0  0  0  0  0  0  0  0  0  0
   -4.1352    1.2135    0.2957 C   0  0  0  0  0  0  0  0  0  0  0  0
   -3.0006    1.2150    1.1078 C   0  0  0  0  0  0  0  0  0  0  0  0
    2.3100   -0.0017   -0.2438 Au  0  0  0  0  0  0  0  0  0  0  0  0
    0.9143   -0.0011    6.2158 H   0  0  0  0  0  0  0  0  0  0  0  0
    0.6978    0.0040    8.3691 H   0  0  0  0  0  0  0  0  0  0  0  0
    0.6127   -0.3826   10.7616 H   0  0  0  0  0  0  0  0  0  0  0  0
   -0.2703    1.0864   11.1935 H   0  0  0  0  0  0  0  0  0  0  0  0
   -0.7634   -0.6763   12.8863 H   0  0  0  0  0  0  0  0  0  0  0  0
   -1.2857   -1.7839   11.6005 H   0  0  0  0  0  0  0  0  0  0  0  0
   -3.2737   -0.7686   12.5865 H   0  0  0  0  0  0  0  0  0  0  0  0
   -2.5950    0.8621   12.4512 H   0  0  0  0  0  0  0  0  0  0  0  0
   -5.1564   -0.8823   10.8574 H   0  0  0  0  0  0  0  0  0  0  0  0
   -4.9776    0.7485   11.5262 H   0  0  0  0  0  0  0  0  0  0  0  0
   -6.3550    0.6540    9.4044 H   0  0  0  0  0  0  0  0  0  0  0  0
   -4.9726    1.7636    9.3073 H   0  0  0  0  0  0  0  0  0  0  0  0
   -5.0515    0.3604    7.2316 H   0  0  0  0  0  0  0  0  0  0  0  0
   -5.0476   -1.1070    8.2157 H   0  0  0  0  0  0  0  0  0  0  0  0
   -2.9544   -0.0175    6.0871 H   0  0  0  0  0  0  0  0  0  0  0  0
   -2.5572   -2.1481    1.4510 H   0  0  0  0  0  0  0  0  0  0  0  0
   -4.5930   -2.1559   -0.0038 H   0  0  0  0  0  0  0  0  0  0  0  0
   -5.5950    0.0034   -0.7426 H   0  0  0  0  0  0  0  0  0  0  0  0
   -4.5742    2.1610   -0.0247 H   0  0  0  0  0  0  0  0  0  0  0  0
   -2.5387    2.1494    1.4305 H   0  0  0  0  0  0  0  0  0  0  0  0
  1  2  1  0  0  0  0
  2 23  1  0  0  0  0
  2  3  2  0  0  0  0
  3  4  2  0  0  0  0
  4  5  2  0  0  0  0
  4  6  1  0  0  0  0
  6  7  2  0  0  0  0
  7 31  1  0  0  0  0
  7  8  1  0  0  0  0
  8  9  1  0  0  0  0
  9 32  1  0  0  0  0
  9 10  2  0  0  0  0
 10 11  1  0  0  0  0
 11 34  1  0  0  0  0
 11 12  1  0  0  0  0
 12 13  1  0  0  0  0
 12 35  1  0  0  0  0
 13 38  1  0  0  0  0
 13 37  1  0  0  0  0
 14 15  1  0  0  0  0
 14 13  1  0  0  0  0
 15 39  1  0  0  0  0
 15 40  1  0  0  0  0
 16 41  1  0  0  0  0
 16 15  1  0  0  0  0
 17 44  1  0  0  0  0
 17 18  1  0  0  0  0
 17 16  1  0  0  0  0
 18 20  2  0  0  0  0
 19  8  2  0  0  0  0
 19 18  1  0  0  0  0
 20 10  1  0  0  0  0
 20 14  1  0  0  0  0
 21 22  2  0  0  0  0
 21  6  1  0  0  0  0
 23 21  1  0  0  0  0
 24 23  1  0  0  0  0
 25 46  1  0  0  0  0
 25 24  1  0  0  0  0
 26 25  2  0  0  0  0
 27 28  2  0  0  0  0
 27 26  1  0  0  0  0
 28 29  1  0  0  0  0
 29 50  1  0  0  0  0
 29 24  2  0  0  0  0
 30  1  1  0  0  0  0
 33 11  1  0  0  0  0
 36 12  1  0  0  0  0
 42 16  1  0  0  0  0
 43 17  1  0  0  0  0
 45 19  1  0  0  0  0
 47 26  1  0  0  0  0
 48 27  1  0  0  0  0
 49 28  1  0  0  0  0
M  END
