000-702-486.xyz
 OpenBabel07262113333D
Fc1ccc(cc1)N1C(=NC(=O)/C(=C/C=C/c2ccco2)/C1=O)S
 35 37  0  0  0  0  0  0  0  0999 V2000
   -5.7855   -0.0051   -0.8807 F   0  0  0  0  0  0  0  0  0  0  0  0
   -4.6969   -0.0038   -0.1025 C   0  0  0  0  0  0  0  0  0  0  0  0
   -4.1520    1.2155    0.2962 C   0  0  0  0  0  0  0  0  0  0  0  0
   -3.0174    1.2116    1.1054 C   0  0  0  0  0  0  0  0  0  0  0  0
   -2.4426   -0.0010    1.4969 C   0  0  0  0  0  0  0  0  0  0  0  0
   -3.0076   -1.2151    1.0959 C   0  0  0  0  0  0  0  0  0  0  0  0
   -4.1420   -1.2218    0.2864 C   0  0  0  0  0  0  0  0  0  0  0  0
   -1.2706    0.0004    2.3296 N   0  0  0  0  0  0  0  0  0  0  0  0
   -0.0000   -0.0000    1.7722 C   0  0  0  0  0  0  0  0  0  0  0  0
    0.0000    0.0000    0.0000 S   0  0  0  0  0  0  0  0  0  0  0  0
    1.1051   -0.0000    2.4413 N   0  0  0  0  0  0  0  0  0  0  0  0
    1.1032    0.0009    3.8351 C   0  0  0  0  0  0  0  0  0  0  0  0
    2.1496   -0.0006    4.4584 O   0  0  0  0  0  0  0  0  0  0  0  0
   -0.2257    0.0044    4.5242 C   0  0  0  0  0  0  0  0  0  0  0  0
   -0.2234    0.0085    5.8973 C   0  0  0  0  0  0  0  0  0  0  0  0
   -1.3349    0.0131    6.7908 C   0  0  0  0  0  0  0  0  0  0  0  0
   -1.1415    0.0177    8.1425 C   0  0  0  0  0  0  0  0  0  0  0  0
   -2.1818    0.0230    9.1221 C   0  0  0  0  0  0  0  0  0  0  0  0
   -3.5651    0.0249    9.0589 C   0  0  0  0  0  0  0  0  0  0  0  0
   -4.0343    0.0308   10.4014 C   0  0  0  0  0  0  0  0  0  0  0  0
   -2.9129    0.0322   11.1943 C   0  0  0  0  0  0  0  0  0  0  0  0
   -1.7980    0.0276   10.4380 O   0  0  0  0  0  0  0  0  0  0  0  0
   -1.4655    0.0035    3.7353 C   0  0  0  0  0  0  0  0  0  0  0  0
   -2.6021    0.0053    4.1726 O   0  0  0  0  0  0  0  0  0  0  0  0
   -4.6207    2.1452   -0.0296 H   0  0  0  0  0  0  0  0  0  0  0  0
   -2.5668    2.1493    1.4338 H   0  0  0  0  0  0  0  0  0  0  0  0
   -2.5493   -2.1516    1.4167 H   0  0  0  0  0  0  0  0  0  0  0  0
   -4.6031   -2.1526   -0.0470 H   0  0  0  0  0  0  0  0  0  0  0  0
    2.3082    0.0016   -0.2578 Au  0  0  0  0  0  0  0  0  0  0  0  0
    0.7794    0.0084    6.3400 H   0  0  0  0  0  0  0  0  0  0  0  0
   -2.3387    0.0130    6.3650 H   0  0  0  0  0  0  0  0  0  0  0  0
   -0.1219    0.0177    8.5417 H   0  0  0  0  0  0  0  0  0  0  0  0
   -4.1611    0.0222    8.1494 H   0  0  0  0  0  0  0  0  0  0  0  0
   -5.0673    0.0337   10.7414 H   0  0  0  0  0  0  0  0  0  0  0  0
   -2.7650    0.0362   12.2712 H   0  0  0  0  0  0  0  0  0  0  0  0
  1  2  1  0  0  0  0
  2  7  2  0  0  0  0
  2  3  1  0  0  0  0
  3  4  2  0  0  0  0
  4 26  1  0  0  0  0
  4  5  1  0  0  0  0
  5  8  1  0  0  0  0
  6 27  1  0  0  0  0
  6  5  2  0  0  0  0
  7  6  1  0  0  0  0
  8 23  1  0  0  0  0
  9  8  1  0  0  0  0
  9 11  2  0  0  0  0
 10  9  1  0  0  0  0
 11 12  2  0  0  0  0
 12 13  2  0  0  0  0
 12 14  1  0  0  0  0
 14 15  2  0  0  0  0
 15 30  1  0  0  0  0
 15 16  1  0  0  0  0
 16 17  2  0  0  0  0
 17 32  1  0  0  0  0
 17 18  1  0  0  0  0
 18 22  1  0  0  0  0
 19 18  2  0  0  0  0
 19 20  1  0  0  0  0
 20 34  1  0  0  0  0
 20 21  2  0  0  0  0
 21 35  1  0  0  0  0
 22 21  1  0  0  0  0
 23 24  2  0  0  0  0
 23 14  1  0  0  0  0
 25  3  1  0  0  0  0
 28  7  1  0  0  0  0
 29 10  1  0  0  0  0
 31 16  1  0  0  0  0
 33 19  1  0  0  0  0
M  END
