000-746-936.xyz
 OpenBabel07262113343D
COc1ccc2c(c1)cc(c(n2)N1CCCCC1)/C=C/1\N=C(N=C1O)S
 46 49  0  0  1  0  0  0  0  0999 V2000
   -9.2174    2.4054    3.4814 C   0  0  0  0  0  0  0  0  0  0  0  0
   -7.9051    2.0354    3.1321 O   0  0  0  0  0  0  0  0  0  0  0  0
   -7.0589    1.5878    4.0983 C   0  0  0  0  0  0  0  0  0  0  0  0
   -7.4260    1.4567    5.4660 C   0  0  0  0  0  0  0  0  0  0  0  0
   -6.5164    0.9909    6.3969 C   0  0  0  0  0  0  0  0  0  0  0  0
   -5.2005    0.6264    6.0193 C   0  0  0  0  0  0  0  0  0  0  0  0
   -4.3485    0.1227    6.9475 N   0  0  0  0  0  0  0  0  0  0  0  0
   -3.1187   -0.2091    6.6078 C   0  0  0  0  0  0  0  0  0  0  0  0
   -2.3238   -0.7881    7.5834 N   0  0  0  0  0  0  0  0  0  0  0  0
   -1.4444   -1.9271    7.2690 C   0  0  0  0  0  0  0  0  0  0  0  0
   -1.7657   -3.1262    8.1623 C   0  0  0  0  0  0  0  0  0  0  0  0
   -1.5320   -2.7956    9.6486 C   0  0  0  0  0  0  0  0  0  0  0  0
   -1.7850   -1.2990    9.9196 C   0  0  0  0  0  0  0  0  0  0  0  0
   -2.8253   -0.7293    8.9611 C   0  0  0  0  0  0  0  0  0  0  0  0
   -2.5899    0.0525    5.2737 C   0  0  0  0  0  0  0  0  0  0  0  0
   -1.1662   -0.0032    5.0186 C   0  0  0  0  0  0  0  0  0  0  0  0
   -0.5225   -0.0011    3.8154 C   0  0  0  0  0  0  0  0  0  0  0  0
   -1.0558   -0.0022    2.5286 N   0  0  0  0  0  0  0  0  0  0  0  0
    0.0000    0.0000    1.7451 C   0  0  0  0  0  0  0  0  0  0  0  0
    0.0000    0.0000    0.0000 S   0  0  0  0  0  0  0  0  0  0  0  0
    1.2547   -0.0000    2.3724 N   0  0  0  0  0  0  0  0  0  0  0  0
    0.9393   -0.0007    3.6360 C   0  0  0  0  0  0  0  0  0  0  0  0
    1.8126   -0.0055    4.6372 O   0  0  0  0  0  0  0  0  0  0  0  0
   -3.4871    0.4884    4.3065 C   0  0  0  0  0  0  0  0  0  0  0  0
   -4.8307    0.7754    4.6420 C   0  0  2  0  0  0  0  0  0  0  0  0
   -5.7742    1.2523    3.7013 C   0  0  0  0  0  0  0  0  0  0  0  0
   -9.2337    3.2391    4.2068 H   0  0  0  0  0  0  0  0  0  0  0  0
   -9.7885    1.5585    3.9037 H   0  0  0  0  0  0  0  0  0  0  0  0
   -9.7071    2.7341    2.5550 H   0  0  0  0  0  0  0  0  0  0  0  0
   -8.4314    1.7208    5.7935 H   0  0  0  0  0  0  0  0  0  0  0  0
   -6.7936    0.8805    7.4467 H   0  0  0  0  0  0  0  0  0  0  0  0
   -0.3799   -1.6549    7.3915 H   0  0  0  0  0  0  0  0  0  0  0  0
   -1.5808   -2.2001    6.2142 H   0  0  0  0  0  0  0  0  0  0  0  0
   -2.8176   -3.4092    7.9945 H   0  0  0  0  0  0  0  0  0  0  0  0
   -1.1548   -3.9873    7.8482 H   0  0  0  0  0  0  0  0  0  0  0  0
   -0.5020   -3.0566    9.9413 H   0  0  0  0  0  0  0  0  0  0  0  0
   -2.1974   -3.4153   10.2712 H   0  0  0  0  0  0  0  0  0  0  0  0
   -0.8500   -0.7266    9.8005 H   0  0  0  0  0  0  0  0  0  0  0  0
   -2.1186   -1.1391   10.9564 H   0  0  0  0  0  0  0  0  0  0  0  0
   -3.7821   -1.2755    9.0554 H   0  0  0  0  0  0  0  0  0  0  0  0
   -3.0582    0.3192    9.1954 H   0  0  0  0  0  0  0  0  0  0  0  0
   -0.5142   -0.0082    5.8929 H   0  0  0  0  0  0  0  0  0  0  0  0
   -2.2794   -0.0646   -0.3587 Au  0  0  0  0  0  0  0  0  0  0  0  0
    2.7029   -0.0034    4.2477 H   0  0  0  0  0  0  0  0  0  0  0  0
   -3.1196    0.6683    3.2956 H   0  0  0  0  0  0  0  0  0  0  0  0
   -5.4954    1.3694    2.6522 H   0  0  0  0  0  0  0  0  0  0  0  0
  1 28  1  0  0  0  0
  1 27  1  0  0  0  0
  2  1  1  0  0  0  0
  2  3  1  0  0  0  0
  3  4  1  0  0  0  0
  4 30  1  0  0  0  0
  4  5  2  0  0  0  0
  5 31  1  0  0  0  0
  6  5  1  0  0  0  0
  6  7  2  0  0  0  0
  8  7  2  0  0  0  0
  8  9  1  0  0  0  0
  9 14  1  0  0  0  0
 10 32  1  0  0  0  0
 10  9  1  0  0  0  0
 10 11  1  0  0  0  0
 11 12  1  0  0  0  0
 12 13  1  0  0  0  0
 12 36  1  0  0  0  0
 12 37  1  0  0  0  0
 13 39  1  0  0  0  0
 14 40  1  0  0  0  0
 14 41  1  0  0  0  0
 14 13  1  0  0  0  0
 15  8  1  0  0  0  0
 16 15  1  0  0  0  0
 16 42  1  0  0  0  0
 17 16  1  0  0  0  0
 18 17  2  0  0  0  0
 19 21  2  0  0  0  0
 19 18  2  0  0  0  0
 20 19  1  0  0  0  0
 21 22  2  0  0  0  0
 22 17  1  0  0  0  0
 22 23  1  0  0  0  0
 24 25  1  0  0  0  0
 24 15  2  0  0  0  0
 25 26  1  1  0  0  0
 25  6  1  0  0  0  0
 26  3  2  0  0  0  0
 29  1  1  0  0  0  0
 33 10  1  0  0  0  0
 34 11  1  0  0  0  0
 35 11  1  0  0  0  0
 38 13  1  0  0  0  0
 43 20  1  0  0  0  0
 44 23  1  0  0  0  0
 45 24  1  0  0  0  0
 46 26  1  0  0  0  0
M  RAD  2  16   2  25   2
M  END
