000-804-502.xyz
 OpenBabel07262113363D
COc1cc2/C(=C\3/N=C(N=C3O)S)/C(=O)N3c2c(c1)C(=CC3(C)C)C
 42 45  0  0  1  0  0  0  0  0999 V2000
   -2.2139   -0.0036    8.8517 C   0  0  0  0  0  0  0  0  0  0  0  0
   -0.9102   -0.0024    9.3792 O   0  0  0  0  0  0  0  0  0  0  0  0
    0.1428   -0.0015    8.5142 C   0  0  0  0  0  0  0  0  0  0  0  0
    0.0025   -0.0013    7.1218 C   0  0  0  0  0  0  0  0  0  0  0  0
    1.1654   -0.0004    6.3234 C   0  0  0  0  0  0  0  0  0  0  0  0
    1.4383   -0.0000    4.8935 C   0  0  2  0  0  0  0  0  0  0  0  0
    2.9656    0.0008    4.7508 C   0  0  0  0  0  0  0  0  0  0  0  0
    3.6441    0.0012    3.7450 O   0  0  0  0  0  0  0  0  0  0  0  0
    3.4641    0.0009    6.0519 N   0  0  0  0  0  0  0  0  0  0  0  0
    2.4178    0.0003    6.9618 C   0  0  0  0  0  0  0  0  0  0  0  0
    2.5818    0.0001    8.3476 C   0  0  0  0  0  0  0  0  0  0  0  0
    1.4168   -0.0008    9.1209 C   0  0  0  0  0  0  0  0  0  0  0  0
    3.9663    0.0007    8.8492 C   0  0  0  0  0  0  0  0  0  0  0  0
    4.1962    0.0008   10.3343 C   0  0  0  0  0  0  0  0  0  0  0  0
    4.9822    0.0012    7.9629 C   0  0  0  0  0  0  0  0  0  0  0  0
    4.8863    0.0013    6.4466 C   0  0  0  0  0  0  0  0  0  0  0  0
    5.5724   -1.2644    5.8952 C   0  0  0  0  0  0  0  0  0  0  0  0
    5.5718    1.2674    5.8953 C   0  0  0  0  0  0  0  0  0  0  0  0
    0.6251   -0.0001    3.7857 C   0  0  0  0  0  0  0  0  0  0  0  0
    1.0822    0.0000    2.4824 N   0  0  0  0  0  0  0  0  0  0  0  0
   -0.0000   -0.0000    1.7343 C   0  0  0  0  0  0  0  0  0  0  0  0
    0.0000    0.0000    0.0000 S   0  0  0  0  0  0  0  0  0  0  0  0
   -1.2277   -0.0001    2.4171 N   0  0  0  0  0  0  0  0  0  0  0  0
   -0.8654   -0.0002    3.6630 C   0  0  0  0  0  0  0  0  0  0  0  0
   -1.7334   -0.0001    4.6691 O   0  0  0  0  0  0  0  0  0  0  0  0
   -2.4094    0.8929    8.2350 H   0  0  0  0  0  0  0  0  0  0  0  0
   -2.9012   -0.0044    9.7083 H   0  0  0  0  0  0  0  0  0  0  0  0
   -2.4076   -0.9005    8.2350 H   0  0  0  0  0  0  0  0  0  0  0  0
   -0.9740   -0.0019    6.6527 H   0  0  0  0  0  0  0  0  0  0  0  0
    1.4574   -0.0010   10.2105 H   0  0  0  0  0  0  0  0  0  0  0  0
    5.2684    0.0014   10.5750 H   0  0  0  0  0  0  0  0  0  0  0  0
    3.7375   -0.8845   10.8062 H   0  0  0  0  0  0  0  0  0  0  0  0
    3.7365    0.8855   10.8062 H   0  0  0  0  0  0  0  0  0  0  0  0
    6.0110    0.0016    8.3352 H   0  0  0  0  0  0  0  0  0  0  0  0
    5.5180   -1.2768    4.7982 H   0  0  0  0  0  0  0  0  0  0  0  0
    5.0800   -2.1658    6.2892 H   0  0  0  0  0  0  0  0  0  0  0  0
    6.6302   -1.2848    6.1995 H   0  0  0  0  0  0  0  0  0  0  0  0
    6.6294    1.2885    6.2000 H   0  0  0  0  0  0  0  0  0  0  0  0
    5.0786    2.1684    6.2890 H   0  0  0  0  0  0  0  0  0  0  0  0
    5.5177    1.2795    4.7983 H   0  0  0  0  0  0  0  0  0  0  0  0
    2.3214   -0.0000   -0.1880 Au  0  0  0  0  0  0  0  0  0  0  0  0
   -2.6224    0.0001    4.2736 H   0  0  0  0  0  0  0  0  0  0  0  0
  1  2  1  0  0  0  0
  1 27  1  0  0  0  0
  3 12  1  0  0  0  0
  3  2  1  0  0  0  0
  4  3  2  0  0  0  0
  5 10  2  0  0  0  0
  5  4  1  0  0  0  0
  6 19  1  1  0  0  0
  6  5  1  0  0  0  0
  7  6  1  0  0  0  0
  7  9  1  0  0  0  0
  8  7  2  0  0  0  0
  9 16  1  0  0  0  0
  9 10  1  0  0  0  0
 10 11  1  0  0  0  0
 11 13  1  0  0  0  0
 11 12  2  0  0  0  0
 12 30  1  0  0  0  0
 13 14  1  0  0  0  0
 14 31  1  0  0  0  0
 14 32  1  0  0  0  0
 14 33  1  0  0  0  0
 15 34  1  0  0  0  0
 15 13  2  0  0  0  0
 16 15  1  0  0  0  0
 17 37  1  0  0  0  0
 17 36  1  0  0  0  0
 17 16  1  0  0  0  0
 18 38  1  0  0  0  0
 18 39  1  0  0  0  0
 18 16  1  0  0  0  0
 20 19  2  0  0  0  0
 21 23  2  0  0  0  0
 21 20  2  0  0  0  0
 22 21  1  0  0  0  0
 23 24  2  0  0  0  0
 24 19  1  0  0  0  0
 24 25  1  0  0  0  0
 26  1  1  0  0  0  0
 28  1  1  0  0  0  0
 29  4  1  0  0  0  0
 35 17  1  0  0  0  0
 40 18  1  0  0  0  0
 41 22  1  0  0  0  0
 42 25  1  0  0  0  0
M  RAD  1   6   2
M  END
