000-824-571.xyz
 OpenBabel07262113373D
SC1=NC(=O)/C(=C\c2cc(n(c2C)c2ccc(c(c2)C)C)C)/C(=N1)O
 44 46  0  0  0  0  0  0  0  0999 V2000
    4.0793   -0.0069    8.9594 C   0  0  0  0  0  0  0  0  0  0  0  0
    2.7323    0.0030    8.3215 C   0  0  0  0  0  0  0  0  0  0  0  0
    2.3594    0.0010    7.0069 C   0  0  0  0  0  0  0  0  0  0  0  0
    0.9142    0.0022    6.9499 C   0  0  0  0  0  0  0  0  0  0  0  0
   -0.0086    0.0018    5.8715 C   0  0  0  0  0  0  0  0  0  0  0  0
    0.0940    0.0007    4.4887 C   0  0  0  0  0  0  0  0  0  0  0  0
   -1.1392    0.0007    3.7283 C   0  0  0  0  0  0  0  0  0  0  0  0
   -2.2992    0.0010    4.4005 O   0  0  0  0  0  0  0  0  0  0  0  0
   -1.2076    0.0002    2.4265 N   0  0  0  0  0  0  0  0  0  0  0  0
   -0.0000    0.0000    1.7721 C   0  0  0  0  0  0  0  0  0  0  0  0
    0.0000    0.0000    0.0000 S   0  0  0  0  0  0  0  0  0  0  0  0
    1.1873   -0.0000    2.2867 N   0  0  0  0  0  0  0  0  0  0  0  0
    1.3466    0.0000    3.6701 C   0  0  0  0  0  0  0  0  0  0  0  0
    2.4630   -0.0003    4.1640 O   0  0  0  0  0  0  0  0  0  0  0  0
    0.4585    0.0044    8.2961 C   0  0  0  0  0  0  0  0  0  0  0  0
   -0.9160    0.0138    8.8730 C   0  0  0  0  0  0  0  0  0  0  0  0
    1.5578    0.0044    9.0982 N   0  0  0  0  0  0  0  0  0  0  0  0
    1.5330    0.0079   10.5267 C   0  0  0  0  0  0  0  0  0  0  0  0
    1.3980   -1.1892   11.2295 C   0  0  0  0  0  0  0  0  0  0  0  0
    1.3807   -1.1606   12.6249 C   0  0  0  0  0  0  0  0  0  0  0  0
    1.5008    0.0405   13.3356 C   0  0  0  0  0  0  0  0  0  0  0  0
    1.4831    0.0439   14.8413 C   0  0  0  0  0  0  0  0  0  0  0  0
    1.6411    1.2517   12.6182 C   0  0  0  0  0  0  0  0  0  0  0  0
    1.7747    2.5628   13.3471 C   0  0  0  0  0  0  0  0  0  0  0  0
    1.6536    1.2158   11.2195 C   0  0  0  0  0  0  0  0  0  0  0  0
    4.2484    0.8861    9.5838 H   0  0  0  0  0  0  0  0  0  0  0  0
    4.2176   -0.8852    9.6119 H   0  0  0  0  0  0  0  0  0  0  0  0
    4.8519   -0.0319    8.1795 H   0  0  0  0  0  0  0  0  0  0  0  0
    3.0029   -0.0034    6.1351 H   0  0  0  0  0  0  0  0  0  0  0  0
   -1.0475    0.0020    6.2086 H   0  0  0  0  0  0  0  0  0  0  0  0
   -2.9961    0.0008    3.7228 H   0  0  0  0  0  0  0  0  0  0  0  0
   -2.2367   -0.0040   -0.5372 Au  0  0  0  0  0  0  0  0  0  0  0  0
   -1.0545    0.8693    9.5541 H   0  0  0  0  0  0  0  0  0  0  0  0
   -1.1113   -0.8966    9.4631 H   0  0  0  0  0  0  0  0  0  0  0  0
   -1.6776    0.0778    8.0866 H   0  0  0  0  0  0  0  0  0  0  0  0
    1.3120   -2.1306   10.6837 H   0  0  0  0  0  0  0  0  0  0  0  0
    1.2750   -2.0974   13.1777 H   0  0  0  0  0  0  0  0  0  0  0  0
    2.4133    0.4685   15.2542 H   0  0  0  0  0  0  0  0  0  0  0  0
    0.6569    0.6600   15.2337 H   0  0  0  0  0  0  0  0  0  0  0  0
    1.3678   -0.9723   15.2436 H   0  0  0  0  0  0  0  0  0  0  0  0
    1.8739    3.4037   12.6467 H   0  0  0  0  0  0  0  0  0  0  0  0
    0.9000    2.7574   13.9899 H   0  0  0  0  0  0  0  0  0  0  0  0
    2.6566    2.5668   14.0090 H   0  0  0  0  0  0  0  0  0  0  0  0
    1.7591    2.1413   10.6489 H   0  0  0  0  0  0  0  0  0  0  0  0
  1 26  1  0  0  0  0
  1 27  1  0  0  0  0
  2  1  1  0  0  0  0
  2 17  1  0  0  0  0
  3  2  2  0  0  0  0
  4  3  1  0  0  0  0
  4 15  2  0  0  0  0
  5 30  1  0  0  0  0
  5  4  1  0  0  0  0
  6  5  2  0  0  0  0
  7  8  1  0  0  0  0
  7  6  1  0  0  0  0
  9  7  2  0  0  0  0
 10 12  2  0  0  0  0
 10  9  2  0  0  0  0
 11 10  1  0  0  0  0
 12 13  2  0  0  0  0
 13 14  2  0  0  0  0
 13  6  1  0  0  0  0
 15 16  1  0  0  0  0
 15 17  1  0  0  0  0
 16 34  1  0  0  0  0
 16 33  1  0  0  0  0
 17 18  1  0  0  0  0
 18 25  2  0  0  0  0
 18 19  1  0  0  0  0
 19 20  2  0  0  0  0
 20 37  1  0  0  0  0
 20 21  1  0  0  0  0
 21 22  1  0  0  0  0
 22 39  1  0  0  0  0
 22 40  1  0  0  0  0
 22 38  1  0  0  0  0
 23 21  2  0  0  0  0
 23 24  1  0  0  0  0
 24 42  1  0  0  0  0
 24 43  1  0  0  0  0
 25 23  1  0  0  0  0
 28  1  1  0  0  0  0
 29  3  1  0  0  0  0
 31  8  1  0  0  0  0
 32 11  1  0  0  0  0
 35 16  1  0  0  0  0
 36 19  1  0  0  0  0
 41 24  1  0  0  0  0
 44 25  1  0  0  0  0
M  END
