000-888-923.xyz
 OpenBabel07262113383D
CCOc1ccccc1/C=C\1/SC(=NC1=O)S
 28 29  0  0  0  0  0  0  0  0999 V2000
   -2.0078    4.0660    6.6513 C   0  0  0  0  0  0  0  0  0  0  0  0
   -2.1510    2.7017    5.9947 C   0  0  0  0  0  0  0  0  0  0  0  0
   -0.9259    1.9758    5.9955 O   0  0  0  0  0  0  0  0  0  0  0  0
   -0.6322    1.1070    6.9778 C   0  0  0  0  0  0  0  0  0  0  0  0
   -1.2447    1.1200    8.2408 C   0  0  0  0  0  0  0  0  0  0  0  0
   -0.8211    0.2461    9.2426 C   0  0  0  0  0  0  0  0  0  0  0  0
    0.2350   -0.6404    9.0148 C   0  0  0  0  0  0  0  0  0  0  0  0
    0.8429   -0.6577    7.7622 C   0  0  0  0  0  0  0  0  0  0  0  0
    0.3999    0.1685    6.7133 C   0  0  0  0  0  0  0  0  0  0  0  0
    1.0637    0.0551    5.4132 C   0  0  0  0  0  0  0  0  0  0  0  0
    0.5211    0.0614    4.1735 C   0  0  0  0  0  0  0  0  0  0  0  0
    1.5084   -0.0000    2.6995 S   0  0  0  0  0  0  0  0  0  0  0  0
    0.0000    0.0000    1.7500 C   0  0  0  0  0  0  0  0  0  0  0  0
    0.0000    0.0000    0.0000 S   0  0  0  0  0  0  0  0  0  0  0  0
   -1.1124    0.0053    2.3889 N   0  0  0  0  0  0  0  0  0  0  0  0
   -0.9432    0.0018    3.7882 C   0  0  0  0  0  0  0  0  0  0  0  0
   -1.8567   -0.0824    4.5738 O   0  0  0  0  0  0  0  0  0  0  0  0
   -1.7656    3.9860    7.7218 H   0  0  0  0  0  0  0  0  0  0  0  0
   -2.9471    4.6332    6.5530 H   0  0  0  0  0  0  0  0  0  0  0  0
   -1.2051    4.6412    6.1648 H   0  0  0  0  0  0  0  0  0  0  0  0
   -2.9443    2.0965    6.4623 H   0  0  0  0  0  0  0  0  0  0  0  0
   -2.4163    2.8116    4.9329 H   0  0  0  0  0  0  0  0  0  0  0  0
   -2.0456    1.8274    8.4522 H   0  0  0  0  0  0  0  0  0  0  0  0
   -1.3126    0.2751   10.2181 H   0  0  0  0  0  0  0  0  0  0  0  0
    0.5794   -1.3102    9.8050 H   0  0  0  0  0  0  0  0  0  0  0  0
    1.6639   -1.3523    7.5651 H   0  0  0  0  0  0  0  0  0  0  0  0
    2.1489   -0.0924    5.4715 H   0  0  0  0  0  0  0  0  0  0  0  0
    2.2500    0.0344   -0.5089 Au  0  0  0  0  0  0  0  0  0  0  0  0
  1 18  1  0  0  0  0
  2  3  1  0  0  0  0
  2 21  1  0  0  0  0
  2  1  1  0  0  0  0
  3  4  1  0  0  0  0
  4  5  1  0  0  0  0
  5 23  1  0  0  0  0
  5  6  2  0  0  0  0
  6 24  1  0  0  0  0
  7  6  1  0  0  0  0
  7 25  1  0  0  0  0
  8  7  2  0  0  0  0
  9  4  2  0  0  0  0
  9  8  1  0  0  0  0
 10 27  1  0  0  0  0
 10  9  1  0  0  0  0
 11 10  2  0  0  0  0
 12 11  1  0  0  0  0
 13 15  2  0  0  0  0
 13 12  1  0  0  0  0
 14 13  1  0  0  0  0
 15 16  2  0  0  0  0
 16 11  1  0  0  0  0
 16 17  2  0  0  0  0
 19  1  1  0  0  0  0
 20  1  1  0  0  0  0
 22  2  1  0  0  0  0
 26  8  1  0  0  0  0
 28 14  1  0  0  0  0
M  END
