000-875-518.xyz
 OpenBabel07262113383D
Sc1nc2scc(c2c(=O)n1c1ccccc1)c1ccco1
 32 35  0  0  1  0  0  0  0  0999 V2000
    0.0000    0.0000    0.0000 S   0  0  0  0  0  0  0  0  0  0  0  0
    0.0000    0.0000    1.7760 C   0  0  0  0  0  0  0  0  0  0  0  0
    1.1834   -0.0000    2.3154 N   0  0  0  0  0  0  0  0  0  0  0  0
    1.2558    0.1067    3.6568 C   0  0  0  0  0  0  0  0  0  0  0  0
    2.7880    0.1695    4.4796 S   0  0  0  0  0  0  0  0  0  0  0  0
    1.9873    0.2536    6.0119 C   0  0  0  0  0  0  0  0  0  0  0  0
    0.6082    0.2322    5.9332 C   0  0  0  0  0  0  0  0  0  0  0  0
    0.1775    0.1484    4.5512 C   0  0  1  0  0  0  0  0  0  0  0  0
   -1.1546    0.1087    3.9799 C   0  0  0  0  0  0  0  0  0  0  0  0
   -2.2240    0.1149    4.5621 O   0  0  0  0  0  0  0  0  0  0  0  0
   -1.1585    0.0820    2.5382 N   0  0  0  0  0  0  0  0  0  0  0  0
   -2.4593    0.1655    1.9367 C   0  0  0  0  0  0  0  0  0  0  0  0
   -2.8758    1.3590    1.3496 C   0  0  0  0  0  0  0  0  0  0  0  0
   -4.1124    1.4158    0.7008 C   0  0  0  0  0  0  0  0  0  0  0  0
   -4.9313    0.2857    0.6488 C   0  0  0  0  0  0  0  0  0  0  0  0
   -4.5233   -0.9030    1.2680 C   0  0  0  0  0  0  0  0  0  0  0  0
   -3.2873   -0.9641    1.9203 C   0  0  0  0  0  0  0  0  0  0  0  0
   -0.2045    0.2931    7.1393 C   0  0  0  0  0  0  0  0  0  0  0  0
   -1.5495    0.2960    7.4286 C   0  0  0  0  0  0  0  0  0  0  0  0
   -1.6593    0.3785    8.8539 C   0  0  0  0  0  0  0  0  0  0  0  0
   -0.3810    0.4200    9.3341 C   0  0  0  0  0  0  0  0  0  0  0  0
    0.5056    0.3693    8.3114 O   0  0  0  0  0  0  0  0  0  0  0  0
   -1.7704   -1.3742   -0.6033 Au  0  0  0  0  0  0  0  0  0  0  0  0
    2.5681    0.3148    6.9287 H   0  0  0  0  0  0  0  0  0  0  0  0
   -2.2166    2.2275    1.3778 H   0  0  0  0  0  0  0  0  0  0  0  0
   -4.4329    2.3472    0.2294 H   0  0  0  0  0  0  0  0  0  0  0  0
   -5.8953    0.3312    0.1376 H   0  0  0  0  0  0  0  0  0  0  0  0
   -5.1728   -1.7811    1.2551 H   0  0  0  0  0  0  0  0  0  0  0  0
   -2.9606   -1.8750    2.4238 H   0  0  0  0  0  0  0  0  0  0  0  0
   -2.3407    0.2444    6.6893 H   0  0  0  0  0  0  0  0  0  0  0  0
   -2.5744    0.4036    9.4412 H   0  0  0  0  0  0  0  0  0  0  0  0
    0.0434    0.4831   10.3325 H   0  0  0  0  0  0  0  0  0  0  0  0
  1  2  1  0  0  0  0
  2  3  2  0  0  0  0
  2 11  1  0  0  0  0
  3  4  2  0  0  0  0
  4  5  1  0  0  0  0
  5  6  1  0  0  0  0
  6 24  1  0  0  0  0
  7  6  2  0  0  0  0
  7 18  1  0  0  0  0
  8  4  1  6  0  0  0
  8  7  1  0  0  0  0
  9  8  1  0  0  0  0
  9 10  2  0  0  0  0
 11  9  1  0  0  0  0
 12 11  1  0  0  0  0
 13 25  1  0  0  0  0
 13 12  2  0  0  0  0
 14 13  1  0  0  0  0
 15 14  2  0  0  0  0
 15 16  1  0  0  0  0
 16 17  2  0  0  0  0
 17 12  1  0  0  0  0
 17 29  1  0  0  0  0
 18 19  2  0  0  0  0
 18 22  1  0  0  0  0
 19 20  1  0  0  0  0
 20 21  2  0  0  0  0
 20 31  1  0  0  0  0
 21 32  1  0  0  0  0
 22 21  1  0  0  0  0
 23  1  1  0  0  0  0
 26 14  1  0  0  0  0
 27 15  1  0  0  0  0
 28 16  1  0  0  0  0
 30 19  1  0  0  0  0
M  RAD  1   8   2
M  END
