000-834-885.xyz
 OpenBabel07262113373D
O=C1N=C(S)N(C(=O)/C/1=C\c1ccc(c(c1)Cl)O)c1ccccc1F
 35 37  0  0  0  0  0  0  0  0999 V2000
    3.2220    0.5083   10.6074 O   0  0  0  0  0  0  0  0  0  0  0  0
    2.5496    0.4249    9.4481 C   0  0  0  0  0  0  0  0  0  0  0  0
    3.1851    0.4003    8.1960 C   0  0  0  0  0  0  0  0  0  0  0  0
    2.4626    0.3132    7.0146 C   0  0  0  0  0  0  0  0  0  0  0  0
    1.0495    0.2468    7.0399 C   0  0  0  0  0  0  0  0  0  0  0  0
    0.1538    0.1565    5.9069 C   0  0  0  0  0  0  0  0  0  0  0  0
    0.2379    0.0940    4.5381 C   0  0  0  0  0  0  0  0  0  0  0  0
   -1.0969    0.0146    3.8330 C   0  0  0  0  0  0  0  0  0  0  0  0
   -2.1456   -0.0240    4.4496 O   0  0  0  0  0  0  0  0  0  0  0  0
   -1.1015   -0.0021    2.4419 N   0  0  0  0  0  0  0  0  0  0  0  0
    0.0000   -0.0000    1.7697 C   0  0  0  0  0  0  0  0  0  0  0  0
    0.0000    0.0000    0.0000 S   0  0  0  0  0  0  0  0  0  0  0  0
    1.2670   -0.0000    2.3333 N   0  0  0  0  0  0  0  0  0  0  0  0
    1.4672    0.0913    3.7346 C   0  0  0  0  0  0  0  0  0  0  0  0
    2.6137    0.1483    4.1408 O   0  0  0  0  0  0  0  0  0  0  0  0
    2.4353    0.0306    1.5057 C   0  0  0  0  0  0  0  0  0  0  0  0
    3.0000   -1.1398    0.9950 C   0  0  0  0  0  0  0  0  0  0  0  0
    4.1341   -1.0725    0.1850 C   0  0  0  0  0  0  0  0  0  0  0  0
    4.7109    0.1683   -0.1038 C   0  0  0  0  0  0  0  0  0  0  0  0
    4.1618    1.3449    0.4126 C   0  0  0  0  0  0  0  0  0  0  0  0
    3.0297    1.2626    1.2146 C   0  0  0  0  0  0  0  0  0  0  0  0
    2.4851    2.3715    1.7195 F   0  0  0  0  0  0  0  0  0  0  0  0
    0.4156    0.2735    8.3095 C   0  0  0  0  0  0  0  0  0  0  0  0
    1.1403    0.3593    9.4868 C   0  0  0  0  0  0  0  0  0  0  0  0
    0.3298    0.3887   11.0268 Cl  0  0  0  0  0  0  0  0  0  0  0  0
    4.1718    0.5473   10.4292 H   0  0  0  0  0  0  0  0  0  0  0  0
    4.2778    0.4517    8.1597 H   0  0  0  0  0  0  0  0  0  0  0  0
    2.9726    0.2947    6.0553 H   0  0  0  0  0  0  0  0  0  0  0  0
   -0.8998    0.1292    6.2092 H   0  0  0  0  0  0  0  0  0  0  0  0
   -2.3079    0.0426   -0.2581 Au  0  0  0  0  0  0  0  0  0  0  0  0
    2.5312   -2.0953    1.2351 H   0  0  0  0  0  0  0  0  0  0  0  0
    4.5693   -1.9884   -0.2189 H   0  0  0  0  0  0  0  0  0  0  0  0
    5.5994    0.2242   -0.7365 H   0  0  0  0  0  0  0  0  0  0  0  0
    4.5943    2.3250    0.2053 H   0  0  0  0  0  0  0  0  0  0  0  0
   -0.6725    0.2256    8.3727 H   0  0  0  0  0  0  0  0  0  0  0  0
  2 24  1  0  0  0  0
  2  1  1  0  0  0  0
  3  2  2  0  0  0  0
  4  5  2  0  0  0  0
  4  3  1  0  0  0  0
  5 23  1  0  0  0  0
  6 29  1  0  0  0  0
  6  5  1  0  0  0  0
  7  6  2  0  0  0  0
  8  9  2  0  0  0  0
  8  7  1  0  0  0  0
 10  8  2  0  0  0  0
 11 13  1  0  0  0  0
 11 10  2  0  0  0  0
 12 11  1  0  0  0  0
 13 14  1  0  0  0  0
 14 15  2  0  0  0  0
 14  7  1  0  0  0  0
 16 13  1  0  0  0  0
 17 31  1  0  0  0  0
 17 16  2  0  0  0  0
 18 17  1  0  0  0  0
 19 18  2  0  0  0  0
 19 20  1  0  0  0  0
 20 21  2  0  0  0  0
 21 16  1  0  0  0  0
 21 22  1  0  0  0  0
 23 35  1  0  0  0  0
 23 24  2  0  0  0  0
 24 25  1  0  0  0  0
 26  1  1  0  0  0  0
 27  3  1  0  0  0  0
 28  4  1  0  0  0  0
 30 12  1  0  0  0  0
 32 18  1  0  0  0  0
 33 19  1  0  0  0  0
 34 20  1  0  0  0  0
M  END
