000-839-347.xyz
 OpenBabel07262113373D
Clc1ccc(cc1)n1c(S)nc(c(c1=O)C1NCCc2c1cccc2)O
 42 45  0  0  1  0  0  0  0  0999 V2000
   -2.1685   -0.0646    4.4850 O   0  0  0  0  0  0  0  0  0  0  0  0
   -0.9966   -0.0206    3.8318 C   0  0  0  0  0  0  0  0  0  0  0  0
   -1.0994   -0.0051    2.4748 N   0  0  0  0  0  0  0  0  0  0  0  0
    0.0000   -0.0000    1.7721 C   0  0  0  0  0  0  0  0  0  0  0  0
    0.0000    0.0000    0.0000 S   0  0  0  0  0  0  0  0  0  0  0  0
    1.2382    0.0000    2.3468 N   0  0  0  0  0  0  0  0  0  0  0  0
    2.4271    0.0044    1.5390 C   0  0  0  0  0  0  0  0  0  0  0  0
    3.0745   -1.2003    1.2550 C   0  0  0  0  0  0  0  0  0  0  0  0
    4.2287   -1.2011    0.4749 C   0  0  0  0  0  0  0  0  0  0  0  0
    4.7275    0.0122   -0.0100 C   0  0  0  0  0  0  0  0  0  0  0  0
    6.1697    0.0155   -0.9905 Cl  0  0  0  0  0  0  0  0  0  0  0  0
    4.0913    1.2226    0.2810 C   0  0  0  0  0  0  0  0  0  0  0  0
    2.9387    1.2147    1.0644 C   0  0  0  0  0  0  0  0  0  0  0  0
    1.4158   -0.0128    3.7773 C   0  0  0  0  0  0  0  0  0  0  0  0
    2.5532   -0.0084    4.2231 O   0  0  0  0  0  0  0  0  0  0  0  0
    0.1896   -0.0203    4.5295 C   0  0  2  0  0  0  0  0  0  0  0  0
    0.2676   -0.0892    6.0382 C   0  0  2  0  0  0  0  0  0  0  0  0
    1.0788    1.0147    6.5493 N   0  0  0  0  0  0  0  0  0  0  0  0
    1.4507    0.8265    7.9425 C   0  0  0  0  0  0  0  0  0  0  0  0
    2.3197   -0.4190    8.1422 C   0  0  0  0  0  0  0  0  0  0  0  0
    1.6832   -1.6358    7.5090 C   0  0  0  0  0  0  0  0  0  0  0  0
    2.0459   -2.9276    7.9196 C   0  0  0  0  0  0  0  0  0  0  0  0
    1.4655   -4.0595    7.3492 C   0  0  0  0  0  0  0  0  0  0  0  0
    0.4945   -3.9087    6.3544 C   0  0  0  0  0  0  0  0  0  0  0  0
    0.1265   -2.6291    5.9403 C   0  0  0  0  0  0  0  0  0  0  0  0
    0.7185   -1.4863    6.4966 C   0  0  0  0  0  0  0  0  0  0  0  0
   -2.8645   -0.0568    3.8097 H   0  0  0  0  0  0  0  0  0  0  0  0
   -2.2767   -0.0413   -0.3949 Au  0  0  0  0  0  0  0  0  0  0  0  0
    2.6703   -2.1337    1.6494 H   0  0  0  0  0  0  0  0  0  0  0  0
    4.7457   -2.1325    0.2422 H   0  0  0  0  0  0  0  0  0  0  0  0
    4.5014    2.1577   -0.1013 H   0  0  0  0  0  0  0  0  0  0  0  0
    2.4284    2.1477    1.3087 H   0  0  0  0  0  0  0  0  0  0  0  0
   -0.7590    0.0486    6.4187 H   0  0  0  0  0  0  0  0  0  0  0  0
    1.9302    1.0584    5.9879 H   0  0  0  0  0  0  0  0  0  0  0  0
    0.5280    0.7380    8.5440 H   0  0  0  0  0  0  0  0  0  0  0  0
    1.9771    1.7265    8.2998 H   0  0  0  0  0  0  0  0  0  0  0  0
    2.5112   -0.6074    9.2123 H   0  0  0  0  0  0  0  0  0  0  0  0
    3.3064   -0.2415    7.6752 H   0  0  0  0  0  0  0  0  0  0  0  0
    2.7987   -3.0396    8.7055 H   0  0  0  0  0  0  0  0  0  0  0  0
    1.7637   -5.0563    7.6836 H   0  0  0  0  0  0  0  0  0  0  0  0
    0.0246   -4.7867    5.9040 H   0  0  0  0  0  0  0  0  0  0  0  0
   -0.6384   -2.5104    5.1690 H   0  0  0  0  0  0  0  0  0  0  0  0
  2  1  1  0  0  0  0
  2 16  1  0  0  0  0
  3  2  2  0  0  0  0
  4  6  1  0  0  0  0
  4  3  2  0  0  0  0
  5  4  1  0  0  0  0
  6 14  1  0  0  0  0
  7  6  1  0  0  0  0
  8  7  1  0  0  0  0
  8 29  1  0  0  0  0
  9  8  2  0  0  0  0
 10 12  2  0  0  0  0
 10  9  1  0  0  0  0
 11 10  1  0  0  0  0
 12 13  1  0  0  0  0
 13 32  1  0  0  0  0
 13  7  2  0  0  0  0
 14 15  2  0  0  0  0
 16 14  1  6  0  0  0
 16 17  1  0  0  0  0
 17 33  1  1  0  0  0
 17 26  1  0  0  0  0
 17 18  1  0  0  0  0
 18 19  1  0  0  0  0
 19 20  1  0  0  0  0
 19 36  1  0  0  0  0
 19 35  1  0  0  0  0
 20 37  1  0  0  0  0
 21 22  1  0  0  0  0
 21 20  1  0  0  0  0
 22 39  1  0  0  0  0
 23 40  1  0  0  0  0
 23 22  2  0  0  0  0
 24 23  1  0  0  0  0
 25 24  2  0  0  0  0
 25 26  1  0  0  0  0
 26 21  2  0  0  0  0
 27  1  1  0  0  0  0
 28  5  1  0  0  0  0
 30  9  1  0  0  0  0
 31 12  1  0  0  0  0
 34 18  1  0  0  0  0
 38 20  1  0  0  0  0
 41 24  1  0  0  0  0
 42 25  1  0  0  0  0
M  RAD  1  16   2
M  END
