000-754-227.xyz
 OpenBabel07262113353D
SC1=NC(=O)/C(=C\c2ccc(o2)c2ccc(cc2[N+](=O)[O-])Cl)/C(=N1)O
 33 35  0  0  0  0  0  0  0  0999 V2000
    2.3060    0.0033    4.3995 O   0  0  0  0  0  0  0  0  0  0  0  0
    1.1589    0.0013    3.7178 C   0  0  0  0  0  0  0  0  0  0  0  0
    1.2135   -0.0000    2.4188 N   0  0  0  0  0  0  0  0  0  0  0  0
    0.0000   -0.0000    1.7654 C   0  0  0  0  0  0  0  0  0  0  0  0
    0.0000    0.0000    0.0000 S   0  0  0  0  0  0  0  0  0  0  0  0
   -1.1872    0.0005    2.2869 N   0  0  0  0  0  0  0  0  0  0  0  0
   -1.3348   -0.0016    3.6644 C   0  0  0  0  0  0  0  0  0  0  0  0
   -2.4407   -0.0045    4.1849 O   0  0  0  0  0  0  0  0  0  0  0  0
   -0.0796    0.0012    4.4783 C   0  0  0  0  0  0  0  0  0  0  0  0
   -0.0004    0.0057    5.8532 C   0  0  0  0  0  0  0  0  0  0  0  0
   -0.9814    0.0011    6.8763 C   0  0  0  0  0  0  0  0  0  0  0  0
   -2.3704   -0.0279    6.9944 C   0  0  0  0  0  0  0  0  0  0  0  0
   -2.6636   -0.0245    8.3747 C   0  0  0  0  0  0  0  0  0  0  0  0
   -1.4469   -0.0020    9.0383 C   0  0  0  0  0  0  0  0  0  0  0  0
   -0.4419    0.0275    8.1496 O   0  0  0  0  0  0  0  0  0  0  0  0
   -1.1213    0.0342   10.4591 C   0  0  0  0  0  0  0  0  0  0  0  0
   -1.9717    0.7284   11.3404 C   0  0  0  0  0  0  0  0  0  0  0  0
   -1.6839    0.8486   12.6965 C   0  0  0  0  0  0  0  0  0  0  0  0
   -0.5046    0.2915   13.2032 C   0  0  0  0  0  0  0  0  0  0  0  0
   -0.1192    0.4605   14.8889 Cl  0  0  0  0  0  0  0  0  0  0  0  0
    0.3663   -0.4026   12.3626 C   0  0  0  0  0  0  0  0  0  0  0  0
    0.0347   -0.5446   11.0186 C   0  0  0  0  0  0  0  0  0  0  0  0
    0.9263   -1.4140   10.2206 N   0  0  0  0  0  0  0  0  0  0  0  0
    0.3977   -2.2041    9.4607 O   0  0  0  0  0  0  0  0  0  0  0  0
    2.1237   -1.3093   10.4222 O   0  0  0  0  0  0  0  0  0  0  0  0
    3.0210   -0.0010    3.7406 H   0  0  0  0  0  0  0  0  0  0  0  0
    2.2373   -0.0054   -0.5383 Au  0  0  0  0  0  0  0  0  0  0  0  0
    1.0124    0.0099    6.2651 H   0  0  0  0  0  0  0  0  0  0  0  0
   -3.0450   -0.0559    6.1462 H   0  0  0  0  0  0  0  0  0  0  0  0
   -3.6466   -0.0670    8.8371 H   0  0  0  0  0  0  0  0  0  0  0  0
   -2.8630    1.2119   10.9372 H   0  0  0  0  0  0  0  0  0  0  0  0
   -2.3559    1.3916   13.3618 H   0  0  0  0  0  0  0  0  0  0  0  0
    1.2848   -0.8481   12.7415 H   0  0  0  0  0  0  0  0  0  0  0  0
  2  1  1  0  0  0  0
  2  9  1  0  0  0  0
  3  2  2  0  0  0  0
  4  6  2  0  0  0  0
  4  3  2  0  0  0  0
  5  4  1  0  0  0  0
  6  7  2  0  0  0  0
  7  8  2  0  0  0  0
  7  9  1  0  0  0  0
  9 10  2  0  0  0  0
 10 28  1  0  0  0  0
 10 11  1  0  0  0  0
 11 12  2  0  0  0  0
 11 15  1  0  0  0  0
 12 13  1  0  0  0  0
 13 30  1  0  0  0  0
 13 14  2  0  0  0  0
 14 16  1  0  0  0  0
 15 14  1  0  0  0  0
 16 22  2  0  0  0  0
 16 17  1  0  0  0  0
 17 18  2  0  0  0  0
 18 19  1  0  0  0  0
 18 32  1  0  0  0  0
 19 20  1  0  0  0  0
 21 33  1  0  0  0  0
 21 19  2  0  0  0  0
 22 21  1  0  0  0  0
 23 25  2  0  0  0  0
 23 22  1  0  0  0  0
 24 23  2  0  0  0  0
 26  1  1  0  0  0  0
 27  5  1  0  0  0  0
 29 12  1  0  0  0  0
 31 17  1  0  0  0  0
M  END
