000-888-933.xyz
 OpenBabel07262113383D
SC1=NC(=O)/C(=C\c2ccc3c(c2)OCO3)/S1
 24 26  0  0  0  0  0  0  0  0999 V2000
    0.0000    0.0000    0.0000 S   0  0  0  0  0  0  0  0  0  0  0  0
   -0.0000    0.0000    1.7412 C   0  0  0  0  0  0  0  0  0  0  0  0
   -1.0419    0.0000    2.5041 N   0  0  0  0  0  0  0  0  0  0  0  0
   -0.7335    0.0000    3.8723 C   0  0  0  0  0  0  0  0  0  0  0  0
   -1.5911    0.0001    4.7337 O   0  0  0  0  0  0  0  0  0  0  0  0
    0.7538   -0.0001    4.1135 C   0  0  0  0  0  0  0  0  0  0  0  0
    1.5853    0.0000    2.5355 S   0  0  0  0  0  0  0  0  0  0  0  0
    1.5033   -0.0005    5.2522 C   0  0  0  0  0  0  0  0  0  0  0  0
    1.2147   -0.0000    6.6778 C   0  0  0  0  0  0  0  0  0  0  0  0
   -0.0766    0.0023    7.2507 C   0  0  0  0  0  0  0  0  0  0  0  0
   -0.2664    0.0026    8.6398 C   0  0  0  0  0  0  0  0  0  0  0  0
    0.8627   -0.0020    9.4420 C   0  0  0  0  0  0  0  0  0  0  0  0
    0.9483    0.0083   10.7990 O   0  0  0  0  0  0  0  0  0  0  0  0
    2.3372   -0.0801   11.1220 C   0  0  0  0  0  0  0  0  0  0  0  0
    3.0710    0.0089    9.9055 O   0  0  0  0  0  0  0  0  0  0  0  0
    2.1504   -0.0041    8.8937 C   0  0  0  0  0  0  0  0  0  0  0  0
    2.3584   -0.0023    7.5347 C   0  0  0  0  0  0  0  0  0  0  0  0
   -2.3024    0.0000   -0.2913 Au  0  0  0  0  0  0  0  0  0  0  0  0
    2.5829   -0.0011    5.0615 H   0  0  0  0  0  0  0  0  0  0  0  0
   -0.9377    0.0030    6.5858 H   0  0  0  0  0  0  0  0  0  0  0  0
   -1.2664    0.0061    9.0748 H   0  0  0  0  0  0  0  0  0  0  0  0
    2.6144    0.7537   11.7886 H   0  0  0  0  0  0  0  0  0  0  0  0
    2.5393   -1.0502   11.6137 H   0  0  0  0  0  0  0  0  0  0  0  0
    3.3699   -0.0011    7.1265 H   0  0  0  0  0  0  0  0  0  0  0  0
  1  2  1  0  0  0  0
  2  3  2  0  0  0  0
  2  7  1  0  0  0  0
  3  4  2  0  0  0  0
  4  6  1  0  0  0  0
  4  5  2  0  0  0  0
  6  8  2  0  0  0  0
  7  6  1  0  0  0  0
  8  9  1  0  0  0  0
  9 10  2  0  0  0  0
  9 17  1  0  0  0  0
 10 11  1  0  0  0  0
 11 21  1  0  0  0  0
 11 12  2  0  0  0  0
 12 13  1  0  0  0  0
 13 14  1  0  0  0  0
 14 23  1  0  0  0  0
 14 22  1  0  0  0  0
 15 14  1  0  0  0  0
 16 12  1  0  0  0  0
 16 15  1  0  0  0  0
 17 16  2  0  0  0  0
 18  1  1  0  0  0  0
 19  8  1  0  0  0  0
 20 10  1  0  0  0  0
 24 17  1  0  0  0  0
M  END
