000-816-258.xyz
 OpenBabel07262113373D
C=CCN1C(=NC(=O)/C(=C\c2ccc(c(c2)O)O)/C1=O)S
 33 34  0  0  0  0  0  0  0  0999 V2000
    2.4283   -0.1618   10.8298 O   0  0  0  0  0  0  0  0  0  0  0  0
    1.8521   -0.1322    9.6134 C   0  0  0  0  0  0  0  0  0  0  0  0
    2.5756   -0.0954    8.4158 C   0  0  0  0  0  0  0  0  0  0  0  0
    1.9421   -0.0656    7.1785 C   0  0  0  0  0  0  0  0  0  0  0  0
    0.5316   -0.0721    7.1063 C   0  0  0  0  0  0  0  0  0  0  0  0
   -0.2793   -0.0454    5.9120 C   0  0  0  0  0  0  0  0  0  0  0  0
   -0.0874   -0.0180    4.5490 C   0  0  0  0  0  0  0  0  0  0  0  0
    1.1963   -0.0048    3.8005 C   0  0  0  0  0  0  0  0  0  0  0  0
    2.2964    0.0011    4.3339 O   0  0  0  0  0  0  0  0  0  0  0  0
    1.1267   -0.0000    2.4114 N   0  0  0  0  0  0  0  0  0  0  0  0
   -0.0000   -0.0000    1.7716 C   0  0  0  0  0  0  0  0  0  0  0  0
    0.0000    0.0000    0.0000 S   0  0  0  0  0  0  0  0  0  0  0  0
   -1.2430    0.0029    2.3719 N   0  0  0  0  0  0  0  0  0  0  0  0
   -2.4874   -0.0407    1.6025 C   0  0  0  0  0  0  0  0  0  0  0  0
   -2.9088   -1.4253    1.1891 C   0  0  0  0  0  0  0  0  0  0  0  0
   -2.3033   -2.5634    1.5264 C   0  0  0  0  0  0  0  0  0  0  0  0
   -1.3617   -0.0014    3.7800 C   0  0  0  0  0  0  0  0  0  0  0  0
   -2.4718    0.0085    4.2816 O   0  0  0  0  0  0  0  0  0  0  0  0
   -0.1924   -0.1087    8.3318 C   0  0  0  0  0  0  0  0  0  0  0  0
    0.4350   -0.1388    9.5667 C   0  0  0  0  0  0  0  0  0  0  0  0
   -0.2193   -0.1745   10.7533 O   0  0  0  0  0  0  0  0  0  0  0  0
    3.3899   -0.1538   10.7288 H   0  0  0  0  0  0  0  0  0  0  0  0
    3.6691   -0.0899    8.4643 H   0  0  0  0  0  0  0  0  0  0  0  0
    2.5118   -0.0364    6.2531 H   0  0  0  0  0  0  0  0  0  0  0  0
   -1.3501   -0.0498    6.1437 H   0  0  0  0  0  0  0  0  0  0  0  0
    2.3155    0.0823   -0.2184 Au  0  0  0  0  0  0  0  0  0  0  0  0
   -3.2643    0.3987    2.2447 H   0  0  0  0  0  0  0  0  0  0  0  0
   -2.3790    0.6105    0.7210 H   0  0  0  0  0  0  0  0  0  0  0  0
   -3.8090   -1.4510    0.5639 H   0  0  0  0  0  0  0  0  0  0  0  0
   -1.4022   -2.5763    2.1458 H   0  0  0  0  0  0  0  0  0  0  0  0
   -2.6872   -3.5291    1.1898 H   0  0  0  0  0  0  0  0  0  0  0  0
   -1.2861   -0.1139    8.3010 H   0  0  0  0  0  0  0  0  0  0  0  0
   -1.1717   -0.1755   10.5915 H   0  0  0  0  0  0  0  0  0  0  0  0
  2  1  1  0  0  0  0
  3 23  1  0  0  0  0
  3  2  2  0  0  0  0
  4  3  1  0  0  0  0
  5  4  2  0  0  0  0
  5 19  1  0  0  0  0
  6 25  1  0  0  0  0
  6  5  1  0  0  0  0
  7  6  2  0  0  0  0
  8  9  2  0  0  0  0
  8  7  1  0  0  0  0
 10  8  2  0  0  0  0
 11 13  1  0  0  0  0
 11 10  2  0  0  0  0
 12 11  1  0  0  0  0
 13 17  1  0  0  0  0
 14 27  1  0  0  0  0
 14 13  1  0  0  0  0
 15 16  2  0  0  0  0
 15 14  1  0  0  0  0
 16 30  1  0  0  0  0
 17 18  2  0  0  0  0
 17  7  1  0  0  0  0
 19 20  2  0  0  0  0
 20  2  1  0  0  0  0
 20 21  1  0  0  0  0
 22  1  1  0  0  0  0
 24  4  1  0  0  0  0
 26 12  1  0  0  0  0
 28 14  1  0  0  0  0
 29 15  1  0  0  0  0
 31 16  1  0  0  0  0
 32 19  1  0  0  0  0
 33 21  1  0  0  0  0
M  END
