000-771-694.xyz
 OpenBabel07262113353D
CCn1cc(c2c1cccc2)/C=C/1\C(=O)N=C(N(C1=O)c1cccc(c1)C(F)(F)F)S
 47 50  0  0  0  0  0  0  0  0999 V2000
    3.9582   -1.4104    9.4088 C   0  0  0  0  0  0  0  0  0  0  0  0
    3.5677    0.0035    8.9844 C   0  0  0  0  0  0  0  0  0  0  0  0
    2.2031    0.0848    8.4837 N   0  0  0  0  0  0  0  0  0  0  0  0
    1.8508    0.0606    7.1755 C   0  0  0  0  0  0  0  0  0  0  0  0
    0.4519    0.0772    7.0472 C   0  0  0  0  0  0  0  0  0  0  0  0
   -0.3881    0.0718    5.9042 C   0  0  0  0  0  0  0  0  0  0  0  0
   -0.1915    0.0453    4.5359 C   0  0  0  0  0  0  0  0  0  0  0  0
    1.1118    0.0096    3.8394 C   0  0  0  0  0  0  0  0  0  0  0  0
    2.1877   -0.0080    4.4248 O   0  0  0  0  0  0  0  0  0  0  0  0
    1.1035   -0.0000    2.4442 N   0  0  0  0  0  0  0  0  0  0  0  0
   -0.0000   -0.0000    1.7733 C   0  0  0  0  0  0  0  0  0  0  0  0
    0.0000    0.0000    0.0000 S   0  0  0  0  0  0  0  0  0  0  0  0
   -1.2627    0.0085    2.3383 N   0  0  0  0  0  0  0  0  0  0  0  0
   -1.4392    0.0489    3.7468 C   0  0  0  0  0  0  0  0  0  0  0  0
   -2.5691    0.0808    4.1969 O   0  0  0  0  0  0  0  0  0  0  0  0
   -2.4449   -0.0078    1.5221 C   0  0  0  0  0  0  0  0  0  0  0  0
   -3.1181    1.1850    1.2492 C   0  0  0  0  0  0  0  0  0  0  0  0
   -4.2662    1.1630    0.4573 C   0  0  0  0  0  0  0  0  0  0  0  0
   -4.7389   -0.0442   -0.0598 C   0  0  0  0  0  0  0  0  0  0  0  0
   -4.0612   -1.2353    0.2219 C   0  0  0  0  0  0  0  0  0  0  0  0
   -2.9168   -1.2219    1.0214 C   0  0  0  0  0  0  0  0  0  0  0  0
   -4.5403   -2.5318   -0.3795 C   0  0  0  0  0  0  0  0  0  0  0  0
   -4.1798   -3.5920    0.3629 F   0  0  0  0  0  0  0  0  0  0  0  0
   -4.0293   -2.7210   -1.6111 F   0  0  0  0  0  0  0  0  0  0  0  0
   -5.8788   -2.5574   -0.5038 F   0  0  0  0  0  0  0  0  0  0  0  0
   -0.0648    0.1082    8.4142 C   0  0  0  0  0  0  0  0  0  0  0  0
   -1.3527    0.1399    8.9678 C   0  0  0  0  0  0  0  0  0  0  0  0
   -1.4884    0.1676   10.3551 C   0  0  0  0  0  0  0  0  0  0  0  0
   -0.3604    0.1657   11.1986 C   0  0  0  0  0  0  0  0  0  0  0  0
    0.9312    0.1351   10.6732 C   0  0  0  0  0  0  0  0  0  0  0  0
    1.0563    0.1077    9.2812 C   0  0  0  0  0  0  0  0  0  0  0  0
    3.2975   -1.7840   10.2054 H   0  0  0  0  0  0  0  0  0  0  0  0
    3.8920   -2.1036    8.5565 H   0  0  0  0  0  0  0  0  0  0  0  0
    4.9926   -1.4221    9.7855 H   0  0  0  0  0  0  0  0  0  0  0  0
    3.6631    0.7062    9.8274 H   0  0  0  0  0  0  0  0  0  0  0  0
    4.2306    0.3670    8.1860 H   0  0  0  0  0  0  0  0  0  0  0  0
    2.5788    0.0347    6.3701 H   0  0  0  0  0  0  0  0  0  0  0  0
   -1.4546    0.0924    6.1542 H   0  0  0  0  0  0  0  0  0  0  0  0
    2.3084    0.0081   -0.2539 Au  0  0  0  0  0  0  0  0  0  0  0  0
   -2.7358    2.1199    1.6613 H   0  0  0  0  0  0  0  0  0  0  0  0
   -4.7978    2.0924    0.2439 H   0  0  0  0  0  0  0  0  0  0  0  0
   -5.6391   -0.0667   -0.6759 H   0  0  0  0  0  0  0  0  0  0  0  0
   -2.3892   -2.1464    1.2552 H   0  0  0  0  0  0  0  0  0  0  0  0
   -2.2368    0.1425    8.3264 H   0  0  0  0  0  0  0  0  0  0  0  0
   -2.4865    0.1908   10.7980 H   0  0  0  0  0  0  0  0  0  0  0  0
   -0.4985    0.1874   12.2819 H   0  0  0  0  0  0  0  0  0  0  0  0
    1.8038    0.1319   11.3285 H   0  0  0  0  0  0  0  0  0  0  0  0
  1 34  1  0  0  0  0
  1 32  1  0  0  0  0
  2  1  1  0  0  0  0
  2 35  1  0  0  0  0
  3  2  1  0  0  0  0
  3 31  1  0  0  0  0
  4  3  1  0  0  0  0
  5  4  2  0  0  0  0
  5 26  1  0  0  0  0
  6 38  1  0  0  0  0
  6  5  1  0  0  0  0
  7  6  2  0  0  0  0
  8  9  2  0  0  0  0
  8  7  1  0  0  0  0
 10  8  2  0  0  0  0
 11 13  1  0  0  0  0
 11 10  2  0  0  0  0
 12 11  1  0  0  0  0
 13 14  1  0  0  0  0
 14 15  2  0  0  0  0
 14  7  1  0  0  0  0
 16 13  1  0  0  0  0
 17 16  1  0  0  0  0
 17 40  1  0  0  0  0
 18 17  2  0  0  0  0
 19 20  2  0  0  0  0
 19 18  1  0  0  0  0
 20 21  1  0  0  0  0
 21 43  1  0  0  0  0
 21 16  2  0  0  0  0
 22 20  1  0  0  0  0
 22 23  1  0  0  0  0
 24 22  1  0  0  0  0
 25 22  1  0  0  0  0
 26 27  2  0  0  0  0
 26 31  1  0  0  0  0
 27 28  1  0  0  0  0
 28 45  1  0  0  0  0
 28 29  2  0  0  0  0
 29 46  1  0  0  0  0
 30 29  1  0  0  0  0
 30 47  1  0  0  0  0
 31 30  2  0  0  0  0
 33  1  1  0  0  0  0
 36  2  1  0  0  0  0
 37  4  1  0  0  0  0
 39 12  1  0  0  0  0
 41 18  1  0  0  0  0
 42 19  1  0  0  0  0
 44 27  1  0  0  0  0
M  END
