000-698-699.xyz
 OpenBabel07262113333D
SC1=NC(=O)/C(=C\c2ccc(o2)Br)/S1
 18 19  0  0  0  0  0  0  0  0999 V2000
    0.0000    0.0000    0.0000 S   0  0  0  0  0  0  0  0  0  0  0  0
   -0.0000    0.0000    1.7410 C   0  0  0  0  0  0  0  0  0  0  0  0
   -1.0326    0.0000    2.5093 N   0  0  0  0  0  0  0  0  0  0  0  0
   -0.7123    0.0002    3.8824 C   0  0  0  0  0  0  0  0  0  0  0  0
   -1.5405    0.0003    4.7607 O   0  0  0  0  0  0  0  0  0  0  0  0
    0.7847    0.0001    4.0975 C   0  0  0  0  0  0  0  0  0  0  0  0
    1.6040   -0.0000    2.5239 S   0  0  0  0  0  0  0  0  0  0  0  0
    1.5059    0.0000    5.2514 C   0  0  0  0  0  0  0  0  0  0  0  0
    1.1484    0.0001    6.6360 C   0  0  0  0  0  0  0  0  0  0  0  0
    1.9963   -0.0002    7.7344 C   0  0  0  0  0  0  0  0  0  0  0  0
    1.1786    0.0001    8.8961 C   0  0  0  0  0  0  0  0  0  0  0  0
   -0.1125    0.0005    8.4221 C   0  0  0  0  0  0  0  0  0  0  0  0
   -1.7432    0.0008    9.3145 Br  0  0  0  0  0  0  0  0  0  0  0  0
   -0.1444    0.0005    7.0818 O   0  0  0  0  0  0  0  0  0  0  0  0
   -2.3017   -0.0008   -0.2927 Au  0  0  0  0  0  0  0  0  0  0  0  0
    2.5951   -0.0002    5.1383 H   0  0  0  0  0  0  0  0  0  0  0  0
    3.0837   -0.0006    7.6950 H   0  0  0  0  0  0  0  0  0  0  0  0
    1.4845   -0.0001    9.9384 H   0  0  0  0  0  0  0  0  0  0  0  0
  1  2  1  0  0  0  0
  2  3  2  0  0  0  0
  2  7  1  0  0  0  0
  3  4  2  0  0  0  0
  4  6  1  0  0  0  0
  4  5  2  0  0  0  0
  6  8  2  0  0  0  0
  7  6  1  0  0  0  0
  8  9  1  0  0  0  0
  9 14  1  0  0  0  0
  9 10  2  0  0  0  0
 10 11  1  0  0  0  0
 11 18  1  0  0  0  0
 12 11  2  0  0  0  0
 12 13  1  0  0  0  0
 14 12  1  0  0  0  0
 15  1  1  0  0  0  0
 16  8  1  0  0  0  0
 17 10  1  0  0  0  0
M  END
