000-817-352.xyz
 OpenBabel07262113373D
SC1=N/C(=C/2\C(=O)Nc3c2cccc3)/C(=N1)O
 24 26  0  0  1  0  0  0  0  0999 V2000
    1.7271    0.0003    4.6698 O   0  0  0  0  0  0  0  0  0  0  0  0
    0.8640    0.0003    3.6621 C   0  0  0  0  0  0  0  0  0  0  0  0
    1.2269    0.0000    2.4167 N   0  0  0  0  0  0  0  0  0  0  0  0
   -0.0000    0.0000    1.7329 C   0  0  0  0  0  0  0  0  0  0  0  0
    0.0000    0.0000    0.0000 S   0  0  0  0  0  0  0  0  0  0  0  0
   -1.0833    0.0001    2.4804 N   0  0  0  0  0  0  0  0  0  0  0  0
   -0.6286    0.0002    3.7834 C   0  0  0  0  0  0  0  0  0  0  0  0
   -1.4508   -0.0001    4.8850 C   0  0  1  0  0  0  0  0  0  0  0  0
   -2.9686   -0.0017    4.7221 C   0  0  0  0  0  0  0  0  0  0  0  0
   -3.6544   -0.0023    3.7264 O   0  0  0  0  0  0  0  0  0  0  0  0
   -3.4690   -0.0024    6.0214 N   0  0  0  0  0  0  0  0  0  0  0  0
   -2.4626   -0.0010    6.9729 C   0  0  0  0  0  0  0  0  0  0  0  0
   -2.5831   -0.0008    8.3582 C   0  0  0  0  0  0  0  0  0  0  0  0
   -1.4082    0.0012    9.1207 C   0  0  0  0  0  0  0  0  0  0  0  0
   -0.1511    0.0028    8.5049 C   0  0  0  0  0  0  0  0  0  0  0  0
   -0.0370    0.0024    7.1113 C   0  0  0  0  0  0  0  0  0  0  0  0
   -1.1956    0.0004    6.3207 C   0  0  0  0  0  0  0  0  0  0  0  0
    2.6194   -0.0001    4.2814 H   0  0  0  0  0  0  0  0  0  0  0  0
   -2.3219    0.0018   -0.1883 Au  0  0  0  0  0  0  0  0  0  0  0  0
   -4.4633   -0.0033    6.2096 H   0  0  0  0  0  0  0  0  0  0  0  0
   -3.5651   -0.0019    8.8357 H   0  0  0  0  0  0  0  0  0  0  0  0
   -1.4788    0.0015   10.2111 H   0  0  0  0  0  0  0  0  0  0  0  0
    0.7526    0.0044    9.1177 H   0  0  0  0  0  0  0  0  0  0  0  0
    0.9429    0.0037    6.6431 H   0  0  0  0  0  0  0  0  0  0  0  0
  2  7  1  0  0  0  0
  2  1  1  0  0  0  0
  3  2  2  0  0  0  0
  4  3  2  0  0  0  0
  4  6  2  0  0  0  0
  5  4  1  0  0  0  0
  6  7  2  0  0  0  0
  8  7  1  1  0  0  0
  8 17  1  0  0  0  0
  9  8  1  0  0  0  0
  9 11  1  0  0  0  0
 10  9  2  0  0  0  0
 11 20  1  0  0  0  0
 11 12  1  0  0  0  0
 12 13  1  0  0  0  0
 13 21  1  0  0  0  0
 13 14  2  0  0  0  0
 14 22  1  0  0  0  0
 15 23  1  0  0  0  0
 15 14  1  0  0  0  0
 16 15  2  0  0  0  0
 17 12  2  0  0  0  0
 17 16  1  0  0  0  0
 18  1  1  0  0  0  0
 19  5  1  0  0  0  0
 24 16  1  0  0  0  0
M  RAD  1   8   2
M  END
