000-742-842.xyz
 OpenBabel07262113343D
Fc1ccc(cc1)N1C(=NC(=O)/C(=C\c2ccc(cc2)N(C)C)/C1=O)S
 42 44  0  0  0  0  0  0  0  0999 V2000
    3.6609    0.0840   11.0223 C   0  0  0  0  0  0  0  0  0  0  0  0
    2.2134    0.1014   10.9246 N   0  0  0  0  0  0  0  0  0  0  0  0
    1.4144    0.1358   12.1343 C   0  0  0  0  0  0  0  0  0  0  0  0
    1.6056    0.0848    9.6979 C   0  0  0  0  0  0  0  0  0  0  0  0
    0.1886    0.0991    9.5746 C   0  0  0  0  0  0  0  0  0  0  0  0
   -0.4064    0.0820    8.3285 C   0  0  0  0  0  0  0  0  0  0  0  0
    0.3425    0.0509    7.1206 C   0  0  0  0  0  0  0  0  0  0  0  0
   -0.4250    0.0377    5.9062 C   0  0  0  0  0  0  0  0  0  0  0  0
   -0.1913    0.0174    4.5449 C   0  0  0  0  0  0  0  0  0  0  0  0
    1.1165    0.0012    3.8415 C   0  0  0  0  0  0  0  0  0  0  0  0
    2.1972   -0.0099    4.4126 O   0  0  0  0  0  0  0  0  0  0  0  0
    1.1020   -0.0000    2.4451 N   0  0  0  0  0  0  0  0  0  0  0  0
   -0.0000    0.0000    1.7738 C   0  0  0  0  0  0  0  0  0  0  0  0
    0.0000    0.0000    0.0000 S   0  0  0  0  0  0  0  0  0  0  0  0
   -1.2627    0.0009    2.3355 N   0  0  0  0  0  0  0  0  0  0  0  0
   -1.4396    0.0135    3.7417 C   0  0  0  0  0  0  0  0  0  0  0  0
   -2.5714    0.0203    4.1879 O   0  0  0  0  0  0  0  0  0  0  0  0
   -2.4416   -0.0057    1.5136 C   0  0  0  0  0  0  0  0  0  0  0  0
   -2.9982   -1.2223    1.1086 C   0  0  0  0  0  0  0  0  0  0  0  0
   -4.1389   -1.2346    0.3079 C   0  0  0  0  0  0  0  0  0  0  0  0
   -4.7085   -0.0195   -0.0679 C   0  0  0  0  0  0  0  0  0  0  0  0
   -5.8037   -0.0259   -0.8378 F   0  0  0  0  0  0  0  0  0  0  0  0
   -4.1723    1.2022    0.3350 C   0  0  0  0  0  0  0  0  0  0  0  0
   -3.0311    1.2037    1.1349 C   0  0  0  0  0  0  0  0  0  0  0  0
    1.7556    0.0362    7.2535 C   0  0  0  0  0  0  0  0  0  0  0  0
    2.3635    0.0523    8.4949 C   0  0  0  0  0  0  0  0  0  0  0  0
    4.0931   -0.8222   10.5629 H   0  0  0  0  0  0  0  0  0  0  0  0
    4.1170    0.9606   10.5297 H   0  0  0  0  0  0  0  0  0  0  0  0
    3.9531    0.0997   12.0792 H   0  0  0  0  0  0  0  0  0  0  0  0
    2.0776    0.1470   13.0076 H   0  0  0  0  0  0  0  0  0  0  0  0
    0.7564   -0.7472   12.2188 H   0  0  0  0  0  0  0  0  0  0  0  0
    0.7764    1.0360   12.1807 H   0  0  0  0  0  0  0  0  0  0  0  0
   -0.4443    0.1233   10.4597 H   0  0  0  0  0  0  0  0  0  0  0  0
   -1.4978    0.0934    8.2681 H   0  0  0  0  0  0  0  0  0  0  0  0
   -1.5027    0.0480    6.1048 H   0  0  0  0  0  0  0  0  0  0  0  0
    2.3097    0.0018   -0.2483 Au  0  0  0  0  0  0  0  0  0  0  0  0
   -2.5287   -2.1564    1.4204 H   0  0  0  0  0  0  0  0  0  0  0  0
   -4.5939   -2.1676   -0.0277 H   0  0  0  0  0  0  0  0  0  0  0  0
   -4.6531    2.1295    0.0200 H   0  0  0  0  0  0  0  0  0  0  0  0
   -2.5872    2.1432    1.4672 H   0  0  0  0  0  0  0  0  0  0  0  0
    2.3548    0.0114    6.3460 H   0  0  0  0  0  0  0  0  0  0  0  0
    3.4514    0.0395    8.5347 H   0  0  0  0  0  0  0  0  0  0  0  0
  1 29  1  0  0  0  0
  2  1  1  0  0  0  0
  2  3  1  0  0  0  0
  3 32  1  0  0  0  0
  3 31  1  0  0  0  0
  3 30  1  0  0  0  0
  4  2  1  0  0  0  0
  5  4  1  0  0  0  0
  5 33  1  0  0  0  0
  6  5  2  0  0  0  0
  7 25  2  0  0  0  0
  7  6  1  0  0  0  0
  8 35  1  0  0  0  0
  8  7  1  0  0  0  0
  9  8  2  0  0  0  0
 10 11  2  0  0  0  0
 10  9  1  0  0  0  0
 12 10  2  0  0  0  0
 13 15  1  0  0  0  0
 13 12  2  0  0  0  0
 14 13  1  0  0  0  0
 15 16  1  0  0  0  0
 16 17  2  0  0  0  0
 16  9  1  0  0  0  0
 18 15  1  0  0  0  0
 19 37  1  0  0  0  0
 19 18  2  0  0  0  0
 20 19  1  0  0  0  0
 21 20  2  0  0  0  0
 21 23  1  0  0  0  0
 22 21  1  0  0  0  0
 23 24  2  0  0  0  0
 24 40  1  0  0  0  0
 24 18  1  0  0  0  0
 25 26  1  0  0  0  0
 26 42  1  0  0  0  0
 26  4  2  0  0  0  0
 27  1  1  0  0  0  0
 28  1  1  0  0  0  0
 34  6  1  0  0  0  0
 36 14  1  0  0  0  0
 38 20  1  0  0  0  0
 39 23  1  0  0  0  0
 41 25  1  0  0  0  0
M  END
