000-719-349.xyz
 OpenBabel07262113333D
SC1=NC(=O)/C(=C\c2ccc[nH]2)/C(=O)N1c1ccccc1
 32 34  0  0  0  0  0  0  0  0999 V2000
    0.0000    0.0000    0.0000 S   0  0  0  0  0  0  0  0  0  0  0  0
    0.0000    0.0000    1.7698 C   0  0  0  0  0  0  0  0  0  0  0  0
   -1.1101    0.0000    2.4394 N   0  0  0  0  0  0  0  0  0  0  0  0
   -1.1213   -0.0003    3.8235 C   0  0  0  0  0  0  0  0  0  0  0  0
   -2.2168    0.0000    4.3966 O   0  0  0  0  0  0  0  0  0  0  0  0
    0.1747   -0.0010    4.5289 C   0  0  0  0  0  0  0  0  0  0  0  0
    0.3676   -0.0023    5.9026 C   0  0  0  0  0  0  0  0  0  0  0  0
   -0.5021   -0.0032    7.0118 C   0  0  0  0  0  0  0  0  0  0  0  0
   -0.1342   -0.0048    8.3807 C   0  0  0  0  0  0  0  0  0  0  0  0
   -1.3128   -0.0054    9.1343 C   0  0  0  0  0  0  0  0  0  0  0  0
   -2.3800   -0.0040    8.2174 C   0  0  0  0  0  0  0  0  0  0  0  0
   -1.8844   -0.0028    6.9691 N   0  0  0  0  0  0  0  0  0  0  0  0
    1.4260   -0.0007    3.7459 C   0  0  0  0  0  0  0  0  0  0  0  0
    2.5512   -0.0010    4.2062 O   0  0  0  0  0  0  0  0  0  0  0  0
    1.2559    0.0000    2.3360 N   0  0  0  0  0  0  0  0  0  0  0  0
    2.4415   -0.0002    1.5188 C   0  0  0  0  0  0  0  0  0  0  0  0
    3.0119   -1.2149    1.1307 C   0  0  0  0  0  0  0  0  0  0  0  0
    4.1569   -1.2122    0.3336 C   0  0  0  0  0  0  0  0  0  0  0  0
    4.7288   -0.0006   -0.0661 C   0  0  0  0  0  0  0  0  0  0  0  0
    4.1574    1.2112    0.3338 C   0  0  0  0  0  0  0  0  0  0  0  0
    3.0124    1.2143    1.1308 C   0  0  0  0  0  0  0  0  0  0  0  0
   -2.3070   -0.0019   -0.2659 Au  0  0  0  0  0  0  0  0  0  0  0  0
    1.4259   -0.0028    6.1826 H   0  0  0  0  0  0  0  0  0  0  0  0
    0.8899   -0.0056    8.7494 H   0  0  0  0  0  0  0  0  0  0  0  0
   -1.4056   -0.0066   10.2181 H   0  0  0  0  0  0  0  0  0  0  0  0
   -3.4531   -0.0039    8.4007 H   0  0  0  0  0  0  0  0  0  0  0  0
   -2.3463   -0.0016    6.0365 H   0  0  0  0  0  0  0  0  0  0  0  0
    2.5510   -2.1500    1.4531 H   0  0  0  0  0  0  0  0  0  0  0  0
    4.6049   -2.1592    0.0248 H   0  0  0  0  0  0  0  0  0  0  0  0
    5.6254   -0.0008   -0.6902 H   0  0  0  0  0  0  0  0  0  0  0  0
    4.6059    2.1579    0.0251 H   0  0  0  0  0  0  0  0  0  0  0  0
    2.5519    2.1495    1.4534 H   0  0  0  0  0  0  0  0  0  0  0  0
  1  2  1  0  0  0  0
  2 15  1  0  0  0  0
  2  3  2  0  0  0  0
  3  4  2  0  0  0  0
  4  5  2  0  0  0  0
  4  6  1  0  0  0  0
  6  7  2  0  0  0  0
  7 23  1  0  0  0  0
  7  8  1  0  0  0  0
  8  9  2  0  0  0  0
  9 24  1  0  0  0  0
  9 10  1  0  0  0  0
 10 25  1  0  0  0  0
 11 26  1  0  0  0  0
 11 10  2  0  0  0  0
 12  8  1  0  0  0  0
 12 11  1  0  0  0  0
 13 14  2  0  0  0  0
 13  6  1  0  0  0  0
 15 13  1  0  0  0  0
 16 15  1  0  0  0  0
 17 28  1  0  0  0  0
 17 16  2  0  0  0  0
 18 17  1  0  0  0  0
 19 18  2  0  0  0  0
 19 20  1  0  0  0  0
 20 21  2  0  0  0  0
 21 32  1  0  0  0  0
 21 16  1  0  0  0  0
 22  1  1  0  0  0  0
 27 12  1  0  0  0  0
 29 18  1  0  0  0  0
 30 19  1  0  0  0  0
 31 20  1  0  0  0  0
M  END
