000-797-112.xyz
 OpenBabel07262113363D
Fc1ccc(cc1)N1C(=NC(=O)/C(=C/c2cc(n(c2C)c2ccccc2F)C)/C1=O)S
 48 51  0  0  1  0  0  0  0  0999 V2000
   -2.7080    0.0217   10.3057 C   0  0  0  0  0  0  0  0  0  0  0  0
   -2.2296    0.3212    8.9260 C   0  0  0  0  0  0  0  0  0  0  0  0
   -1.1471   -0.1402    8.2283 C   0  0  0  0  0  0  0  0  0  0  0  0
   -1.1967    0.4040    6.8912 C   0  0  0  0  0  0  0  0  0  0  0  0
   -0.1951    0.1618    5.9042 C   0  0  0  0  0  0  0  0  0  0  0  0
   -0.2264    0.1387    4.5280 C   0  0  1  0  0  0  0  0  0  0  0  0
    1.0994    0.0101    3.8386 C   0  0  0  0  0  0  0  0  0  0  0  0
    2.1455   -0.0601    4.4583 O   0  0  0  0  0  0  0  0  0  0  0  0
    1.1043   -0.0000    2.4432 N   0  0  0  0  0  0  0  0  0  0  0  0
    0.0000   -0.0000    1.7740 C   0  0  0  0  0  0  0  0  0  0  0  0
    0.0000    0.0000    0.0000 S   0  0  0  0  0  0  0  0  0  0  0  0
   -1.2664   -0.0044    2.3341 N   0  0  0  0  0  0  0  0  0  0  0  0
   -1.4609    0.0465    3.7439 C   0  0  0  0  0  0  0  0  0  0  0  0
   -2.5974   -0.0363    4.1734 O   0  0  0  0  0  0  0  0  0  0  0  0
   -2.4403   -0.0808    1.5094 C   0  0  0  0  0  0  0  0  0  0  0  0
   -2.9665   -1.3278    1.1599 C   0  0  0  0  0  0  0  0  0  0  0  0
   -4.1053   -1.4047    0.3602 C   0  0  0  0  0  0  0  0  0  0  0  0
   -4.7041   -0.2226   -0.0719 C   0  0  0  0  0  0  0  0  0  0  0  0
   -5.7980   -0.2914   -0.8407 F   0  0  0  0  0  0  0  0  0  0  0  0
   -4.1982    1.0291    0.2738 C   0  0  0  0  0  0  0  0  0  0  0  0
   -3.0586    1.0949    1.0738 C   0  0  0  0  0  0  0  0  0  0  0  0
   -2.3178    1.2517    6.8396 C   0  0  0  0  0  0  0  0  0  0  0  0
   -2.7472    2.2264    5.8030 C   0  0  0  0  0  0  0  0  0  0  0  0
   -2.9302    1.1846    8.0686 N   0  0  0  0  0  0  0  0  0  0  0  0
   -4.1212    1.8748    8.4083 C   0  0  0  0  0  0  0  0  0  0  0  0
   -5.3259    1.5893    7.7544 C   0  0  0  0  0  0  0  0  0  0  0  0
   -6.4906    2.2850    8.0805 C   0  0  0  0  0  0  0  0  0  0  0  0
   -6.4612    3.2677    9.0751 C   0  0  0  0  0  0  0  0  0  0  0  0
   -5.2682    3.5619    9.7392 C   0  0  0  0  0  0  0  0  0  0  0  0
   -4.1118    2.8696    9.3939 C   0  0  0  0  0  0  0  0  0  0  0  0
   -2.9625    3.1592   10.0157 F   0  0  0  0  0  0  0  0  0  0  0  0
   -2.6666    0.9100   10.9562 H   0  0  0  0  0  0  0  0  0  0  0  0
   -3.7491   -0.3424   10.3072 H   0  0  0  0  0  0  0  0  0  0  0  0
   -2.0750   -0.7566   10.7528 H   0  0  0  0  0  0  0  0  0  0  0  0
   -0.4053   -0.8446    8.5991 H   0  0  0  0  0  0  0  0  0  0  0  0
    0.8040   -0.0578    6.3005 H   0  0  0  0  0  0  0  0  0  0  0  0
    2.3095    0.0043   -0.2489 Au  0  0  0  0  0  0  0  0  0  0  0  0
   -2.4752   -2.2346    1.5153 H   0  0  0  0  0  0  0  0  0  0  0  0
   -4.5367   -2.3631    0.0674 H   0  0  0  0  0  0  0  0  0  0  0  0
   -4.6991    1.9288   -0.0866 H   0  0  0  0  0  0  0  0  0  0  0  0
   -2.6358    2.0593    1.3594 H   0  0  0  0  0  0  0  0  0  0  0  0
   -3.5078    1.7958    5.1335 H   0  0  0  0  0  0  0  0  0  0  0  0
   -3.1479    3.1421    6.2630 H   0  0  0  0  0  0  0  0  0  0  0  0
   -1.8889    2.4932    5.1707 H   0  0  0  0  0  0  0  0  0  0  0  0
   -5.3279    0.8117    6.9883 H   0  0  0  0  0  0  0  0  0  0  0  0
   -7.4234    2.0544    7.5626 H   0  0  0  0  0  0  0  0  0  0  0  0
   -7.3714    3.8109    9.3380 H   0  0  0  0  0  0  0  0  0  0  0  0
   -5.2119    4.3268   10.5155 H   0  0  0  0  0  0  0  0  0  0  0  0
  1 33  1  0  0  0  0
  1 34  1  0  0  0  0
  1 32  1  0  0  0  0
  2  1  1  0  0  0  0
  3 35  1  0  0  0  0
  3  2  2  0  0  0  0
  4  3  1  0  0  0  0
  5 36  1  0  0  0  0
  5  4  1  0  0  0  0
  6  5  1  1  0  0  0
  7  8  2  0  0  0  0
  7  6  1  0  0  0  0
  9  7  2  0  0  0  0
 10 12  1  0  0  0  0
 10  9  2  0  0  0  0
 11 10  1  0  0  0  0
 12 13  1  0  0  0  0
 13 14  2  0  0  0  0
 13  6  1  0  0  0  0
 15 12  1  0  0  0  0
 16 15  1  0  0  0  0
 16 38  1  0  0  0  0
 17 16  2  0  0  0  0
 18 20  2  0  0  0  0
 18 17  1  0  0  0  0
 19 18  1  0  0  0  0
 20 21  1  0  0  0  0
 21 41  1  0  0  0  0
 21 15  2  0  0  0  0
 22  4  2  0  0  0  0
 22 24  1  0  0  0  0
 23 43  1  0  0  0  0
 23 22  1  0  0  0  0
 24 25  1  0  0  0  0
 24  2  1  0  0  0  0
 25 30  2  0  0  0  0
 26 27  2  0  0  0  0
 26 25  1  0  0  0  0
 27 28  1  0  0  0  0
 28 47  1  0  0  0  0
 28 29  2  0  0  0  0
 29 48  1  0  0  0  0
 30 29  1  0  0  0  0
 30 31  1  0  0  0  0
 37 11  1  0  0  0  0
 39 17  1  0  0  0  0
 40 20  1  0  0  0  0
 42 23  1  0  0  0  0
 44 23  1  0  0  0  0
 45 26  1  0  0  0  0
 46 27  1  0  0  0  0
M  RAD  2   5   2   6   2
M  END
