000-749-393.xyz
 OpenBabel07262113343D
Cc1ccc(o1)/C=C/1\SC(=NC1=O)S
 21 22  0  0  0  0  0  0  0  0999 V2000
    6.0507    0.0033    4.2714 C   0  0  0  0  0  0  0  0  0  0  0  0
    4.8941    0.0019    5.2011 C   0  0  0  0  0  0  0  0  0  0  0  0
    4.7806    0.0012    6.5714 C   0  0  0  0  0  0  0  0  0  0  0  0
    3.3864    0.0001    6.8656 C   0  0  0  0  0  0  0  0  0  0  0  0
    2.7269    0.0003    5.6521 C   0  0  0  0  0  0  0  0  0  0  0  0
    1.3427   -0.0003    5.3114 C   0  0  0  0  0  0  0  0  0  0  0  0
    0.7905   -0.0002    4.0738 C   0  0  0  0  0  0  0  0  0  0  0  0
    1.6168    0.0000    2.5177 S   0  0  0  0  0  0  0  0  0  0  0  0
   -0.0000   -0.0000    1.7394 C   0  0  0  0  0  0  0  0  0  0  0  0
    0.0000    0.0000    0.0000 S   0  0  0  0  0  0  0  0  0  0  0  0
   -1.0375    0.0000    2.5048 N   0  0  0  0  0  0  0  0  0  0  0  0
   -0.7031   -0.0002    3.8714 C   0  0  0  0  0  0  0  0  0  0  0  0
   -1.5068   -0.0004    4.7764 O   0  0  0  0  0  0  0  0  0  0  0  0
    3.6559    0.0013    4.6441 O   0  0  0  0  0  0  0  0  0  0  0  0
    6.0339   -0.8844    3.6173 H   0  0  0  0  0  0  0  0  0  0  0  0
    6.9918    0.0038    4.8372 H   0  0  0  0  0  0  0  0  0  0  0  0
    6.0324    0.8916    3.6181 H   0  0  0  0  0  0  0  0  0  0  0  0
    5.6060    0.0015    7.2794 H   0  0  0  0  0  0  0  0  0  0  0  0
    2.9128   -0.0006    7.8447 H   0  0  0  0  0  0  0  0  0  0  0  0
    0.6287   -0.0006    6.1404 H   0  0  0  0  0  0  0  0  0  0  0  0
   -2.3004    0.0025   -0.3004 Au  0  0  0  0  0  0  0  0  0  0  0  0
  1 16  1  0  0  0  0
  1  2  1  0  0  0  0
  2  3  2  0  0  0  0
  3  4  1  0  0  0  0
  3 18  1  0  0  0  0
  4 19  1  0  0  0  0
  5  4  2  0  0  0  0
  6  5  1  0  0  0  0
  6 20  1  0  0  0  0
  7  6  2  0  0  0  0
  8  7  1  0  0  0  0
  9 11  2  0  0  0  0
  9  8  1  0  0  0  0
 10  9  1  0  0  0  0
 11 12  2  0  0  0  0
 12  7  1  0  0  0  0
 12 13  2  0  0  0  0
 14  2  1  0  0  0  0
 14  5  1  0  0  0  0
 15  1  1  0  0  0  0
 17  1  1  0  0  0  0
 21 10  1  0  0  0  0
M  END
