000-438-543.xyz
 OpenBabel07262113333D
Clc1ccc(cc1)c1nnc(n1N=Cc1cc(Br)ccc1O)S
 33 35  0  0  0  0  0  0  0  0999 V2000
    3.5057    1.6493   -1.1135 O   0  0  0  0  0  0  0  0  0  0  0  0
    2.7604    2.4658   -0.3331 C   0  0  0  0  0  0  0  0  0  0  0  0
    2.2984    3.7129   -0.7675 C   0  0  0  0  0  0  0  0  0  0  0  0
    1.5186    4.5076    0.0704 C   0  0  0  0  0  0  0  0  0  0  0  0
    1.2030    4.0564    1.3566 C   0  0  0  0  0  0  0  0  0  0  0  0
    0.1541    5.1462    2.5093 Br  0  0  0  0  0  0  0  0  0  0  0  0
    1.6497    2.8149    1.7998 C   0  0  0  0  0  0  0  0  0  0  0  0
    2.4273    2.0013    0.9582 C   0  0  0  0  0  0  0  0  0  0  0  0
    2.9569    0.6975    1.3768 C   0  0  0  0  0  0  0  0  0  0  0  0
    2.4460   -0.2031    2.1389 N   0  0  0  0  0  0  0  0  0  0  0  0
    1.1337   -0.0000    2.5480 N   0  0  0  0  0  0  0  0  0  0  0  0
   -0.0000   -0.0000    1.7379 C   0  0  0  0  0  0  0  0  0  0  0  0
    0.0000    0.0000    0.0000 S   0  0  0  0  0  0  0  0  0  0  0  0
   -1.0706    0.0540    2.5135 N   0  0  0  0  0  0  0  0  0  0  0  0
   -0.6647    0.0987    3.7986 N   0  0  0  0  0  0  0  0  0  0  0  0
    0.6629    0.0259    3.8385 C   0  0  0  0  0  0  0  0  0  0  0  0
    1.4455    0.0406    5.0749 C   0  0  0  0  0  0  0  0  0  0  0  0
    0.7632    0.3318    6.2735 C   0  0  0  0  0  0  0  0  0  0  0  0
    1.4371    0.3554    7.4891 C   0  0  0  0  0  0  0  0  0  0  0  0
    2.8096    0.0832    7.5197 C   0  0  0  0  0  0  0  0  0  0  0  0
    3.6622    0.1178    9.0422 Cl  0  0  0  0  0  0  0  0  0  0  0  0
    3.5036   -0.2162    6.3456 C   0  0  0  0  0  0  0  0  0  0  0  0
    2.8231   -0.2367    5.1285 C   0  0  0  0  0  0  0  0  0  0  0  0
    3.6701    2.0667   -1.9693 H   0  0  0  0  0  0  0  0  0  0  0  0
    2.5455    4.0619   -1.7741 H   0  0  0  0  0  0  0  0  0  0  0  0
    1.1578    5.4777   -0.2735 H   0  0  0  0  0  0  0  0  0  0  0  0
    1.4049    2.4847    2.8076 H   0  0  0  0  0  0  0  0  0  0  0  0
    3.9472    0.4330    0.9881 H   0  0  0  0  0  0  0  0  0  0  0  0
    0.9173   -2.0716   -0.4755 Au  0  0  0  0  0  0  0  0  0  0  0  0
   -0.3070    0.5366    6.2260 H   0  0  0  0  0  0  0  0  0  0  0  0
    0.9092    0.5844    8.4157 H   0  0  0  0  0  0  0  0  0  0  0  0
    4.5714   -0.4342    6.3884 H   0  0  0  0  0  0  0  0  0  0  0  0
    3.3614   -0.4852    4.2150 H   0  0  0  0  0  0  0  0  0  0  0  0
  1  2  1  0  0  0  0
  2  8  1  0  0  0  0
  3  2  2  0  0  0  0
  3  4  1  0  0  0  0
  4  5  2  0  0  0  0
  5  7  1  0  0  0  0
  5  6  1  0  0  0  0
  7 27  1  0  0  0  0
  8  9  1  0  0  0  0
  8  7  2  0  0  0  0
  9 10  2  0  0  0  0
 10 11  1  0  0  0  0
 11 16  1  0  0  0  0
 12 14  2  0  0  0  0
 12 11  1  0  0  0  0
 13 12  1  0  0  0  0
 14 15  1  0  0  0  0
 15 16  2  0  0  0  0
 16 17  1  0  0  0  0
 17 23  2  0  0  0  0
 17 18  1  0  0  0  0
 18 19  2  0  0  0  0
 19 20  1  0  0  0  0
 19 31  1  0  0  0  0
 20 21  1  0  0  0  0
 22 32  1  0  0  0  0
 22 20  2  0  0  0  0
 23 22  1  0  0  0  0
 24  1  1  0  0  0  0
 25  3  1  0  0  0  0
 26  4  1  0  0  0  0
 28  9  1  0  0  0  0
 29 13  1  0  0  0  0
 30 18  1  0  0  0  0
 33 23  1  0  0  0  0
M  END
