000-753-919.xyz
 OpenBabel07262113353D
OC1=NC(=N/C/1=C\c1cc2cccc(c2nc1N1CCOCC1)C)S
 43 46  0  0  1  0  0  0  0  0999 V2000
    6.9289   -0.7986    7.8634 C   0  0  0  0  0  0  0  0  0  0  0  0
    6.5362   -0.9591    6.4223 C   0  0  0  0  0  0  0  0  0  0  0  0
    7.4204   -1.4228    5.4624 C   0  0  0  0  0  0  0  0  0  0  0  0
    7.0502   -1.5671    4.1014 C   0  0  0  0  0  0  0  0  0  0  0  0
    5.7738   -1.2480    3.6953 C   0  0  0  0  0  0  0  0  0  0  0  0
    4.8287   -0.7681    4.6422 C   0  0  1  0  0  0  0  0  0  0  0  0
    3.4858   -0.4892    4.3099 C   0  0  0  0  0  0  0  0  0  0  0  0
    2.5838   -0.0530    5.2749 C   0  0  0  0  0  0  0  0  0  0  0  0
    1.1604    0.0063    5.0196 C   0  0  0  0  0  0  0  0  0  0  0  0
    0.5189    0.0032    3.8155 C   0  0  0  0  0  0  0  0  0  0  0  0
    1.0547    0.0000    2.5299 N   0  0  0  0  0  0  0  0  0  0  0  0
   -0.0000   -0.0000    1.7446 C   0  0  0  0  0  0  0  0  0  0  0  0
    0.0000    0.0000    0.0000 S   0  0  0  0  0  0  0  0  0  0  0  0
   -1.2559    0.0040    2.3699 N   0  0  0  0  0  0  0  0  0  0  0  0
   -0.9429    0.0066    3.6338 C   0  0  0  0  0  0  0  0  0  0  0  0
   -1.8171    0.0161    4.6339 O   0  0  0  0  0  0  0  0  0  0  0  0
    3.1169    0.2134    6.6008 C   0  0  0  0  0  0  0  0  0  0  0  0
    4.3520   -0.1061    6.9342 N   0  0  0  0  0  0  0  0  0  0  0  0
    5.2097   -0.6099    6.0141 C   0  0  0  0  0  0  0  0  0  0  0  0
    2.3155    0.7897    7.5768 N   0  0  0  0  0  0  0  0  0  0  0  0
    2.8316    0.8329    8.9390 C   0  0  0  0  0  0  0  0  0  0  0  0
    3.6917    2.0898    9.1561 C   0  0  0  0  0  0  0  0  0  0  0  0
    3.2229    3.1779    8.3719 O   0  0  0  0  0  0  0  0  0  0  0  0
    1.8343    3.1349    8.1692 C   0  0  0  0  0  0  0  0  0  0  0  0
    1.4610    1.9442    7.2630 C   0  0  0  0  0  0  0  0  0  0  0  0
    6.2656   -1.3827    8.5210 H   0  0  0  0  0  0  0  0  0  0  0  0
    7.9663   -1.1212    8.0322 H   0  0  0  0  0  0  0  0  0  0  0  0
    6.8293    0.2511    8.1829 H   0  0  0  0  0  0  0  0  0  0  0  0
    8.4379   -1.6854    5.7648 H   0  0  0  0  0  0  0  0  0  0  0  0
    7.7837   -1.9376    3.3816 H   0  0  0  0  0  0  0  0  0  0  0  0
    5.4654   -1.3641    2.6531 H   0  0  0  0  0  0  0  0  0  0  0  0
    3.1192   -0.6700    3.2986 H   0  0  0  0  0  0  0  0  0  0  0  0
    0.5072    0.0163    5.8932 H   0  0  0  0  0  0  0  0  0  0  0  0
    2.2774    0.0842   -0.3643 Au  0  0  0  0  0  0  0  0  0  0  0  0
   -2.7074    0.0152    4.2442 H   0  0  0  0  0  0  0  0  0  0  0  0
    3.4265   -0.0666    9.1309 H   0  0  0  0  0  0  0  0  0  0  0  0
    1.9673    0.8257    9.6235 H   0  0  0  0  0  0  0  0  0  0  0  0
    4.7240    1.8981    8.8332 H   0  0  0  0  0  0  0  0  0  0  0  0
    3.6989    2.3595   10.2322 H   0  0  0  0  0  0  0  0  0  0  0  0
    1.5393    4.0760    7.6817 H   0  0  0  0  0  0  0  0  0  0  0  0
    1.2885    3.0824    9.1332 H   0  0  0  0  0  0  0  0  0  0  0  0
    0.3864    1.7106    7.3812 H   0  0  0  0  0  0  0  0  0  0  0  0
    1.6238    2.2260    6.2142 H   0  0  0  0  0  0  0  0  0  0  0  0
  1 27  1  0  0  0  0
  1 28  1  0  0  0  0
  1 26  1  0  0  0  0
  2  1  1  0  0  0  0
  3 29  1  0  0  0  0
  3  2  2  0  0  0  0
  4  3  1  0  0  0  0
  5  4  2  0  0  0  0
  6  5  1  1  0  0  0
  6 19  1  0  0  0  0
  7  6  1  0  0  0  0
  7  8  2  0  0  0  0
  8 17  1  0  0  0  0
  9  8  1  0  0  0  0
  9 33  1  0  0  0  0
 10  9  1  0  0  0  0
 11 10  2  0  0  0  0
 12 14  2  0  0  0  0
 12 11  2  0  0  0  0
 13 12  1  0  0  0  0
 14 15  2  0  0  0  0
 15 10  1  0  0  0  0
 15 16  1  0  0  0  0
 17 18  2  0  0  0  0
 17 20  1  0  0  0  0
 19  2  1  0  0  0  0
 19 18  2  0  0  0  0
 20 21  1  0  0  0  0
 21 36  1  0  0  0  0
 21 22  1  0  0  0  0
 21 37  1  0  0  0  0
 22 39  1  0  0  0  0
 23 22  1  0  0  0  0
 24 23  1  0  0  0  0
 24 41  1  0  0  0  0
 25 42  1  0  0  0  0
 25 20  1  0  0  0  0
 25 24  1  0  0  0  0
 30  4  1  0  0  0  0
 31  5  1  0  0  0  0
 32  7  1  0  0  0  0
 34 13  1  0  0  0  0
 35 16  1  0  0  0  0
 38 22  1  0  0  0  0
 40 24  1  0  0  0  0
 43 25  1  0  0  0  0
M  RAD  2   6   2   9   2
M  END
