000-836-127.xyz
 OpenBabel07262113373D
Fc1ccc(cc1)c1ccc(o1)/C=C\1/C(=O)N=C(N(C1=O)c1cccc(c1C)C)S
 47 50  0  0  0  0  0  0  0  0999 V2000
    4.8236    2.3901   -0.2400 C   0  0  0  0  0  0  0  0  0  0  0  0
    4.1655    1.1222    0.2379 C   0  0  0  0  0  0  0  0  0  0  0  0
    4.6760   -0.1265   -0.1364 C   0  0  0  0  0  0  0  0  0  0  0  0
    4.0851   -1.3161    0.2956 C   0  0  0  0  0  0  0  0  0  0  0  0
    2.9622   -1.2639    1.1143 C   0  0  0  0  0  0  0  0  0  0  0  0
    2.4400   -0.0216    1.4853 C   0  0  0  0  0  0  0  0  0  0  0  0
    1.2687    0.0000    2.3260 N   0  0  0  0  0  0  0  0  0  0  0  0
   -0.0000   -0.0000    1.7719 C   0  0  0  0  0  0  0  0  0  0  0  0
    0.0000    0.0000    0.0000 S   0  0  0  0  0  0  0  0  0  0  0  0
   -1.1046    0.0121    2.4434 N   0  0  0  0  0  0  0  0  0  0  0  0
   -1.0982    0.0305    3.8354 C   0  0  0  0  0  0  0  0  0  0  0  0
   -2.1425    0.0230    4.4627 O   0  0  0  0  0  0  0  0  0  0  0  0
    0.2364    0.0694    4.5209 C   0  0  0  0  0  0  0  0  0  0  0  0
    0.2032    0.1120    5.8943 C   0  0  0  0  0  0  0  0  0  0  0  0
    1.1915    0.1565    6.9072 C   0  0  0  0  0  0  0  0  0  0  0  0
    2.5814    0.1797    7.0099 C   0  0  0  0  0  0  0  0  0  0  0  0
    2.8939    0.2242    8.3836 C   0  0  0  0  0  0  0  0  0  0  0  0
    1.6867    0.2271    9.0711 C   0  0  0  0  0  0  0  0  0  0  0  0
    0.6709    0.1869    8.1907 O   0  0  0  0  0  0  0  0  0  0  0  0
    1.3579    0.2638   10.4872 C   0  0  0  0  0  0  0  0  0  0  0  0
    2.3768    0.3084   11.4592 C   0  0  0  0  0  0  0  0  0  0  0  0
    2.0677    0.3435   12.8155 C   0  0  0  0  0  0  0  0  0  0  0  0
    0.7281    0.3339   13.2034 C   0  0  0  0  0  0  0  0  0  0  0  0
    0.4274    0.3676   14.5063 F   0  0  0  0  0  0  0  0  0  0  0  0
   -0.3035    0.2901   12.2672 C   0  0  0  0  0  0  0  0  0  0  0  0
    0.0146    0.2552   10.9122 C   0  0  0  0  0  0  0  0  0  0  0  0
    1.4651    0.0592    3.7264 C   0  0  0  0  0  0  0  0  0  0  0  0
    2.6042    0.1019    4.1589 O   0  0  0  0  0  0  0  0  0  0  0  0
    3.0247    1.1854    1.0694 C   0  0  0  0  0  0  0  0  0  0  0  0
    2.4618    2.5174    1.4816 C   0  0  0  0  0  0  0  0  0  0  0  0
    4.1270    3.0097   -0.8292 H   0  0  0  0  0  0  0  0  0  0  0  0
    5.1607    3.0140    0.6045 H   0  0  0  0  0  0  0  0  0  0  0  0
    5.6977    2.1728   -0.8698 H   0  0  0  0  0  0  0  0  0  0  0  0
    5.5583   -0.1652   -0.7806 H   0  0  0  0  0  0  0  0  0  0  0  0
    4.5012   -2.2794   -0.0065 H   0  0  0  0  0  0  0  0  0  0  0  0
    2.4736   -2.1727    1.4688 H   0  0  0  0  0  0  0  0  0  0  0  0
   -2.3064    0.0494   -0.2618 Au  0  0  0  0  0  0  0  0  0  0  0  0
   -0.8193    0.1093    6.2885 H   0  0  0  0  0  0  0  0  0  0  0  0
    3.2521    0.1644    6.1588 H   0  0  0  0  0  0  0  0  0  0  0  0
    3.8867    0.2511    8.8248 H   0  0  0  0  0  0  0  0  0  0  0  0
    3.4238    0.3157   11.1520 H   0  0  0  0  0  0  0  0  0  0  0  0
    2.8463    0.3781   13.5791 H   0  0  0  0  0  0  0  0  0  0  0  0
   -1.3391    0.2839   12.6112 H   0  0  0  0  0  0  0  0  0  0  0  0
   -0.7802    0.2207   10.1665 H   0  0  0  0  0  0  0  0  0  0  0  0
    1.5643    2.4158    2.1028 H   0  0  0  0  0  0  0  0  0  0  0  0
    3.2042    3.0956    2.0552 H   0  0  0  0  0  0  0  0  0  0  0  0
    2.1931    3.1214    0.6003 H   0  0  0  0  0  0  0  0  0  0  0  0
  1  2  1  0  0  0  0
  1 32  1  0  0  0  0
  2 29  1  0  0  0  0
  3  2  2  0  0  0  0
  3  4  1  0  0  0  0
  4  5  2  0  0  0  0
  5 36  1  0  0  0  0
  5  6  1  0  0  0  0
  6  7  1  0  0  0  0
  7 27  1  0  0  0  0
  8  7  1  0  0  0  0
  8 10  2  0  0  0  0
  9  8  1  0  0  0  0
 10 11  2  0  0  0  0
 11 12  2  0  0  0  0
 11 13  1  0  0  0  0
 13 14  2  0  0  0  0
 14 38  1  0  0  0  0
 14 15  1  0  0  0  0
 15 16  2  0  0  0  0
 15 19  1  0  0  0  0
 16 17  1  0  0  0  0
 17 40  1  0  0  0  0
 17 18  2  0  0  0  0
 18 20  1  0  0  0  0
 19 18  1  0  0  0  0
 20 26  2  0  0  0  0
 20 21  1  0  0  0  0
 21 22  2  0  0  0  0
 22 23  1  0  0  0  0
 22 42  1  0  0  0  0
 23 24  1  0  0  0  0
 25 43  1  0  0  0  0
 25 23  2  0  0  0  0
 26 25  1  0  0  0  0
 27 28  2  0  0  0  0
 27 13  1  0  0  0  0
 29 30  1  0  0  0  0
 29  6  2  0  0  0  0
 30 46  1  0  0  0  0
 30 45  1  0  0  0  0
 31  1  1  0  0  0  0
 33  1  1  0  0  0  0
 34  3  1  0  0  0  0
 35  4  1  0  0  0  0
 37  9  1  0  0  0  0
 39 16  1  0  0  0  0
 41 21  1  0  0  0  0
 44 26  1  0  0  0  0
 47 30  1  0  0  0  0
M  END
