000-753-069.xyz
 OpenBabel07262113353D
SC1=NC(=O)/C(=C/c2ccc(c(c2)O)O)/C(=N1)O
 26 27  0  0  0  0  0  0  0  0999 V2000
    2.3589    0.0167    4.3480 O   0  0  0  0  0  0  0  0  0  0  0  0
    1.1829    0.0547    3.7172 C   0  0  0  0  0  0  0  0  0  0  0  0
    1.2149    0.0000    2.4179 N   0  0  0  0  0  0  0  0  0  0  0  0
    0.0000   -0.0000    1.7664 C   0  0  0  0  0  0  0  0  0  0  0  0
    0.0000    0.0000    0.0000 S   0  0  0  0  0  0  0  0  0  0  0  0
   -1.1839   -0.0087    2.2878 N   0  0  0  0  0  0  0  0  0  0  0  0
   -1.3192    0.0138    3.6686 C   0  0  0  0  0  0  0  0  0  0  0  0
   -2.4102   -0.0314    4.2059 O   0  0  0  0  0  0  0  0  0  0  0  0
   -0.0410    0.1170    4.4915 C   0  0  0  0  0  0  0  0  0  0  0  0
   -0.2384    0.2141    5.8470 C   0  0  0  0  0  0  0  0  0  0  0  0
    0.5439    0.3930    7.0520 C   0  0  0  0  0  0  0  0  0  0  0  0
   -0.1856    0.2768    8.2610 C   0  0  0  0  0  0  0  0  0  0  0  0
    0.4329    0.4333    9.4969 C   0  0  0  0  0  0  0  0  0  0  0  0
    1.7944    0.7311    9.5551 C   0  0  0  0  0  0  0  0  0  0  0  0
    2.4978    0.9130   10.7025 O   0  0  0  0  0  0  0  0  0  0  0  0
    2.5430    0.8733    8.3633 C   0  0  0  0  0  0  0  0  0  0  0  0
    3.8599    1.1750    8.4280 O   0  0  0  0  0  0  0  0  0  0  0  0
    1.9231    0.7015    7.1350 C   0  0  0  0  0  0  0  0  0  0  0  0
    3.0351   -0.0536    3.6507 H   0  0  0  0  0  0  0  0  0  0  0  0
    2.2365    0.0035   -0.5417 Au  0  0  0  0  0  0  0  0  0  0  0  0
   -1.3133    0.1445    6.0561 H   0  0  0  0  0  0  0  0  0  0  0  0
   -1.2536    0.0565    8.2191 H   0  0  0  0  0  0  0  0  0  0  0  0
   -0.1409    0.3330   10.4225 H   0  0  0  0  0  0  0  0  0  0  0  0
    1.9277    0.8078   11.4756 H   0  0  0  0  0  0  0  0  0  0  0  0
    4.1060    1.2572    9.3620 H   0  0  0  0  0  0  0  0  0  0  0  0
    2.5243    0.8142    6.2398 H   0  0  0  0  0  0  0  0  0  0  0  0
  2  1  1  0  0  0  0
  2  9  1  0  0  0  0
  3  2  2  0  0  0  0
  4  6  2  0  0  0  0
  4  3  2  0  0  0  0
  5  4  1  0  0  0  0
  6  7  2  0  0  0  0
  7  8  2  0  0  0  0
  7  9  1  0  0  0  0
  9 10  2  0  0  0  0
 10 21  1  0  0  0  0
 10 11  1  0  0  0  0
 11 18  2  0  0  0  0
 11 12  1  0  0  0  0
 12 13  2  0  0  0  0
 13 14  1  0  0  0  0
 13 23  1  0  0  0  0
 14 15  1  0  0  0  0
 15 24  1  0  0  0  0
 16 17  1  0  0  0  0
 16 14  2  0  0  0  0
 17 25  1  0  0  0  0
 18 16  1  0  0  0  0
 19  1  1  0  0  0  0
 20  5  1  0  0  0  0
 22 12  1  0  0  0  0
 26 18  1  0  0  0  0
M  END
