000-438-216.xyz
 OpenBabel07262113333D
Clc1ccc(c(c1)Cl)c1nnc(n1N=Cc1ccccc1O)S
 33 35  0  0  0  0  0  0  0  0999 V2000
   -2.2917    2.2313   -0.9791 O   0  0  0  0  0  0  0  0  0  0  0  0
   -2.0504    2.9362    0.1566 C   0  0  0  0  0  0  0  0  0  0  0  0
   -1.6116    4.2613    0.0684 C   0  0  0  0  0  0  0  0  0  0  0  0
   -1.3222    4.9752    1.2309 C   0  0  0  0  0  0  0  0  0  0  0  0
   -1.4523    4.3739    2.4890 C   0  0  0  0  0  0  0  0  0  0  0  0
   -1.9013    3.0585    2.5819 C   0  0  0  0  0  0  0  0  0  0  0  0
   -2.2251    2.3372    1.4203 C   0  0  0  0  0  0  0  0  0  0  0  0
   -2.8662    1.0100    1.4934 C   0  0  0  0  0  0  0  0  0  0  0  0
   -2.4477   -0.0565    2.0708 N   0  0  0  0  0  0  0  0  0  0  0  0
   -1.1374    0.0228    2.5347 N   0  0  0  0  0  0  0  0  0  0  0  0
   -0.0000    0.0000    1.7456 C   0  0  0  0  0  0  0  0  0  0  0  0
    0.0000    0.0000    0.0000 S   0  0  0  0  0  0  0  0  0  0  0  0
    1.0650    0.0000    2.5288 N   0  0  0  0  0  0  0  0  0  0  0  0
    0.6424    0.0386    3.8151 N   0  0  0  0  0  0  0  0  0  0  0  0
   -0.6840    0.0105    3.8255 C   0  0  0  0  0  0  0  0  0  0  0  0
   -1.5223    0.1001    5.0278 C   0  0  0  0  0  0  0  0  0  0  0  0
   -1.2725    1.1415    5.9384 C   0  0  0  0  0  0  0  0  0  0  0  0
   -2.0281    1.2949    7.0974 C   0  0  0  0  0  0  0  0  0  0  0  0
   -3.0562    0.3845    7.3588 C   0  0  0  0  0  0  0  0  0  0  0  0
   -4.0264    0.5664    8.7949 Cl  0  0  0  0  0  0  0  0  0  0  0  0
   -3.3129   -0.6802    6.4935 C   0  0  0  0  0  0  0  0  0  0  0  0
   -2.5374   -0.8233    5.3409 C   0  0  0  0  0  0  0  0  0  0  0  0
   -2.8103   -2.2164    4.3331 Cl  0  0  0  0  0  0  0  0  0  0  0  0
   -1.8991    1.3447   -0.8713 H   0  0  0  0  0  0  0  0  0  0  0  0
   -1.4816    4.7005   -0.9220 H   0  0  0  0  0  0  0  0  0  0  0  0
   -0.9733    6.0077    1.1546 H   0  0  0  0  0  0  0  0  0  0  0  0
   -1.2141    4.9341    3.3952 H   0  0  0  0  0  0  0  0  0  0  0  0
   -2.0418    2.5932    3.5590 H   0  0  0  0  0  0  0  0  0  0  0  0
   -3.8474    0.9004    1.0098 H   0  0  0  0  0  0  0  0  0  0  0  0
   -0.9985   -2.0484   -0.4279 Au  0  0  0  0  0  0  0  0  0  0  0  0
   -0.4613    1.8364    5.7145 H   0  0  0  0  0  0  0  0  0  0  0  0
   -1.8301    2.1097    7.7942 H   0  0  0  0  0  0  0  0  0  0  0  0
   -4.0947   -1.4041    6.7199 H   0  0  0  0  0  0  0  0  0  0  0  0
  1 24  1  0  0  0  0
  1  2  1  0  0  0  0
  2  7  1  0  0  0  0
  3  2  2  0  0  0  0
  3  4  1  0  0  0  0
  4  5  2  0  0  0  0
  5  6  1  0  0  0  0
  5 27  1  0  0  0  0
  6 28  1  0  0  0  0
  7  8  1  0  0  0  0
  7  6  2  0  0  0  0
  8  9  1  0  0  0  0
  9 10  1  0  0  0  0
 10 15  1  0  0  0  0
 11 13  2  0  0  0  0
 11 10  1  0  0  0  0
 12 11  1  0  0  0  0
 13 14  1  0  0  0  0
 14 15  2  0  0  0  0
 15 16  1  0  0  0  0
 16 22  2  0  0  0  0
 16 17  1  0  0  0  0
 17 18  2  0  0  0  0
 18 19  1  0  0  0  0
 18 32  1  0  0  0  0
 19 20  1  0  0  0  0
 21 33  1  0  0  0  0
 21 19  2  0  0  0  0
 22 21  1  0  0  0  0
 23 22  1  0  0  0  0
 25  3  1  0  0  0  0
 26  4  1  0  0  0  0
 29  8  1  0  0  0  0
 30 12  1  0  0  0  0
 31 17  1  0  0  0  0
M  RAD  2   8   2   9   2
M  END
