000-744-976.xyz
 OpenBabel07262113343D
Clc1cccc(c1)N1C(=NC(=O)/C(=C/c2cccn2C)/C1=O)S
 35 37  0  0  0  0  0  0  0  0999 V2000
    0.7629    0.0228    8.7062 C   0  0  0  0  0  0  0  0  0  0  0  0
   -0.6284    0.0223    8.2929 N   0  0  0  0  0  0  0  0  0  0  0  0
   -1.6842    0.0284    9.1408 C   0  0  0  0  0  0  0  0  0  0  0  0
   -2.8693    0.0267    8.4018 C   0  0  0  0  0  0  0  0  0  0  0  0
   -2.5118    0.0192    7.0473 C   0  0  0  0  0  0  0  0  0  0  0  0
   -1.1003    0.0165    6.9672 C   0  0  0  0  0  0  0  0  0  0  0  0
   -0.1612    0.0103    5.9083 C   0  0  0  0  0  0  0  0  0  0  0  0
   -0.2244    0.0048    4.5302 C   0  0  0  0  0  0  0  0  0  0  0  0
    1.1031    0.0011    3.8339 C   0  0  0  0  0  0  0  0  0  0  0  0
    2.1557   -0.0005    4.4518 O   0  0  0  0  0  0  0  0  0  0  0  0
    1.1058   -0.0000    2.4415 N   0  0  0  0  0  0  0  0  0  0  0  0
   -0.0000   -0.0000    1.7726 C   0  0  0  0  0  0  0  0  0  0  0  0
    0.0000    0.0000    0.0000 S   0  0  0  0  0  0  0  0  0  0  0  0
   -1.2641    0.0001    2.3360 N   0  0  0  0  0  0  0  0  0  0  0  0
   -1.4557    0.0026    3.7466 C   0  0  0  0  0  0  0  0  0  0  0  0
   -2.5971    0.0027    4.1722 O   0  0  0  0  0  0  0  0  0  0  0  0
   -2.4424   -0.0022    1.5116 C   0  0  0  0  0  0  0  0  0  0  0  0
   -3.0104   -1.2153    1.1161 C   0  0  0  0  0  0  0  0  0  0  0  0
   -4.1486   -1.2058    0.3093 C   0  0  0  0  0  0  0  0  0  0  0  0
   -4.7205    0.0018   -0.0971 C   0  0  0  0  0  0  0  0  0  0  0  0
   -4.1422    1.2054    0.3161 C   0  0  0  0  0  0  0  0  0  0  0  0
   -4.8513    2.7202   -0.1843 Cl  0  0  0  0  0  0  0  0  0  0  0  0
   -3.0046    1.2157    1.1234 C   0  0  0  0  0  0  0  0  0  0  0  0
    1.2887    0.9137    8.3317 H   0  0  0  0  0  0  0  0  0  0  0  0
    0.8038    0.0278    9.8027 H   0  0  0  0  0  0  0  0  0  0  0  0
    1.2869   -0.8726    8.3399 H   0  0  0  0  0  0  0  0  0  0  0  0
   -1.5315    0.0337   10.2188 H   0  0  0  0  0  0  0  0  0  0  0  0
   -3.8752    0.0307    8.8154 H   0  0  0  0  0  0  0  0  0  0  0  0
   -3.1574    0.0161    6.1771 H   0  0  0  0  0  0  0  0  0  0  0  0
    0.8867    0.0104    6.2267 H   0  0  0  0  0  0  0  0  0  0  0  0
    2.3083    0.0071   -0.2542 Au  0  0  0  0  0  0  0  0  0  0  0  0
   -2.5536   -2.1517    1.4386 H   0  0  0  0  0  0  0  0  0  0  0  0
   -4.5984   -2.1486   -0.0088 H   0  0  0  0  0  0  0  0  0  0  0  0
   -5.6093    0.0191   -0.7290 H   0  0  0  0  0  0  0  0  0  0  0  0
   -2.5557    2.1557    1.4428 H   0  0  0  0  0  0  0  0  0  0  0  0
  1 25  1  0  0  0  0
  2  1  1  0  0  0  0
  2  3  1  0  0  0  0
  3 27  1  0  0  0  0
  4 28  1  0  0  0  0
  4  3  2  0  0  0  0
  5  4  1  0  0  0  0
  6  5  2  0  0  0  0
  6  2  1  0  0  0  0
  7 30  1  0  0  0  0
  7  6  1  0  0  0  0
  8  7  2  0  0  0  0
  9 10  2  0  0  0  0
  9  8  1  0  0  0  0
 11  9  2  0  0  0  0
 12 14  1  0  0  0  0
 12 11  2  0  0  0  0
 13 12  1  0  0  0  0
 14 15  1  0  0  0  0
 15 16  2  0  0  0  0
 15  8  1  0  0  0  0
 17 14  1  0  0  0  0
 18 32  1  0  0  0  0
 18 17  2  0  0  0  0
 19 18  1  0  0  0  0
 20 19  2  0  0  0  0
 20 21  1  0  0  0  0
 21 23  2  0  0  0  0
 22 21  1  0  0  0  0
 23 35  1  0  0  0  0
 23 17  1  0  0  0  0
 24  1  1  0  0  0  0
 26  1  1  0  0  0  0
 29  5  1  0  0  0  0
 31 13  1  0  0  0  0
 33 19  1  0  0  0  0
 34 20  1  0  0  0  0
M  END
