000-713-315.xyz
 OpenBabel07262113333D
O=C1N=C(S)N(C(=O)/C/1=C\NN1CCOCC1)c1ccccc1Cl
 39 41  0  0  0  0  0  0  0  0999 V2000
    0.0000    0.0000    0.0000 S   0  0  0  0  0  0  0  0  0  0  0  0
   -0.0000   -0.0000    1.7810 C   0  0  0  0  0  0  0  0  0  0  0  0
    1.1879   -0.0000    2.2618 N   0  0  0  0  0  0  0  0  0  0  0  0
    1.4385   -0.0736    3.6385 C   0  0  0  0  0  0  0  0  0  0  0  0
    2.5710   -0.1657    4.0747 O   0  0  0  0  0  0  0  0  0  0  0  0
    0.2470    0.0013    4.5070 C   0  0  0  0  0  0  0  0  0  0  0  0
    0.4344    0.0197    5.8817 C   0  0  0  0  0  0  0  0  0  0  0  0
   -0.5384    0.0571    6.7859 N   0  0  0  0  0  0  0  0  0  0  0  0
   -0.2606    0.0746    8.1475 N   0  0  0  0  0  0  0  0  0  0  0  0
   -0.6333    1.3439    8.8058 C   0  0  0  0  0  0  0  0  0  0  0  0
   -1.9533    1.2289    9.5589 C   0  0  0  0  0  0  0  0  0  0  0  0
   -1.8998    0.2223   10.5565 O   0  0  0  0  0  0  0  0  0  0  0  0
   -0.9787   -0.8242   10.3038 C   0  0  0  0  0  0  0  0  0  0  0  0
   -0.8231   -1.1068    8.8173 C   0  0  0  0  0  0  0  0  0  0  0  0
   -1.0877   -0.0028    3.9623 C   0  0  0  0  0  0  0  0  0  0  0  0
   -2.1268    0.0050    4.6249 O   0  0  0  0  0  0  0  0  0  0  0  0
   -1.1716   -0.0405    2.5465 N   0  0  0  0  0  0  0  0  0  0  0  0
   -2.4660   -0.2911    2.0036 C   0  0  0  0  0  0  0  0  0  0  0  0
   -3.3973    0.7483    1.8884 C   0  0  0  0  0  0  0  0  0  0  0  0
   -4.6518    0.5146    1.3207 C   0  0  0  0  0  0  0  0  0  0  0  0
   -4.9828   -0.7722    0.8763 C   0  0  0  0  0  0  0  0  0  0  0  0
   -4.0778   -1.8230    1.0234 C   0  0  0  0  0  0  0  0  0  0  0  0
   -2.8259   -1.5849    1.5996 C   0  0  0  0  0  0  0  0  0  0  0  0
   -1.7007   -2.8938    1.7887 Cl  0  0  0  0  0  0  0  0  0  0  0  0
   -2.0035    0.8601   -0.7616 Au  0  0  0  0  0  0  0  0  0  0  0  0
    1.4580    0.0017    6.2673 H   0  0  0  0  0  0  0  0  0  0  0  0
   -1.5048    0.0412    6.4234 H   0  0  0  0  0  0  0  0  0  0  0  0
    0.1672    1.6270    9.5091 H   0  0  0  0  0  0  0  0  0  0  0  0
   -0.6860    2.1296    8.0395 H   0  0  0  0  0  0  0  0  0  0  0  0
   -2.1947    2.1809   10.0588 H   0  0  0  0  0  0  0  0  0  0  0  0
   -2.7745    1.0175    8.8442 H   0  0  0  0  0  0  0  0  0  0  0  0
   -1.3571   -1.7228   10.8143 H   0  0  0  0  0  0  0  0  0  0  0  0
    0.0128   -0.5894   10.7388 H   0  0  0  0  0  0  0  0  0  0  0  0
   -0.1636   -1.9745    8.6537 H   0  0  0  0  0  0  0  0  0  0  0  0
   -1.8174   -1.3638    8.3976 H   0  0  0  0  0  0  0  0  0  0  0  0
   -3.1153    1.7388    2.2473 H   0  0  0  0  0  0  0  0  0  0  0  0
   -5.3704    1.3316    1.2315 H   0  0  0  0  0  0  0  0  0  0  0  0
   -5.9588   -0.9625    0.4249 H   0  0  0  0  0  0  0  0  0  0  0  0
   -4.3282   -2.8326    0.6959 H   0  0  0  0  0  0  0  0  0  0  0  0
  1  2  1  0  0  0  0
  2  3  2  0  0  0  0
  2 17  1  0  0  0  0
  3  4  2  0  0  0  0
  4  5  2  0  0  0  0
  4  6  1  0  0  0  0
  6  7  2  0  0  0  0
  7 26  1  0  0  0  0
  7  8  1  0  0  0  0
  8  9  1  0  0  0  0
  9 10  1  0  0  0  0
  9 14  1  0  0  0  0
 10 28  1  0  0  0  0
 10 11  1  0  0  0  0
 11 30  1  0  0  0  0
 11 12  1  0  0  0  0
 13 12  1  0  0  0  0
 13 33  1  0  0  0  0
 13 32  1  0  0  0  0
 14 13  1  0  0  0  0
 15  6  1  0  0  0  0
 15 16  2  0  0  0  0
 17 15  1  0  0  0  0
 18 17  1  0  0  0  0
 19 18  1  0  0  0  0
 19 36  1  0  0  0  0
 20 19  2  0  0  0  0
 21 22  2  0  0  0  0
 21 20  1  0  0  0  0
 22 23  1  0  0  0  0
 23 24  1  0  0  0  0
 23 18  2  0  0  0  0
 25  1  1  0  0  0  0
 27  8  1  0  0  0  0
 29 10  1  0  0  0  0
 31 11  1  0  0  0  0
 34 14  1  0  0  0  0
 35 14  1  0  0  0  0
 37 20  1  0  0  0  0
 38 21  1  0  0  0  0
 39 22  1  0  0  0  0
M  END
