000-712-235.xyz
 OpenBabel07262113333D
Fc1ccc(cc1)CN1C(=NC(=O)/C(=C\c2ccc[nH]2)/C1=O)S
 35 37  0  0  0  0  0  0  0  0999 V2000
    4.1452    5.2083    0.1375 F   0  0  0  0  0  0  0  0  0  0  0  0
    3.7562    3.9734    0.4865 C   0  0  0  0  0  0  0  0  0  0  0  0
    3.3730    3.0762   -0.5053 C   0  0  0  0  0  0  0  0  0  0  0  0
    2.9645    1.7942   -0.1303 C   0  0  0  0  0  0  0  0  0  0  0  0
    2.9432    1.4078    1.2160 C   0  0  0  0  0  0  0  0  0  0  0  0
    2.4994    0.0192    1.6195 C   0  0  0  0  0  0  0  0  0  0  0  0
    1.2328    0.0000    2.3785 N   0  0  0  0  0  0  0  0  0  0  0  0
   -0.0000   -0.0000    1.7699 C   0  0  0  0  0  0  0  0  0  0  0  0
    0.0000    0.0000    0.0000 S   0  0  0  0  0  0  0  0  0  0  0  0
   -1.1365   -0.0072    2.4026 N   0  0  0  0  0  0  0  0  0  0  0  0
   -1.2070   -0.0180    3.7813 C   0  0  0  0  0  0  0  0  0  0  0  0
   -2.3254   -0.0355    4.3100 O   0  0  0  0  0  0  0  0  0  0  0  0
    0.0606   -0.0061    4.5317 C   0  0  0  0  0  0  0  0  0  0  0  0
    0.2042   -0.0074    5.9128 C   0  0  0  0  0  0  0  0  0  0  0  0
   -0.7065   -0.0238    6.9866 C   0  0  0  0  0  0  0  0  0  0  0  0
   -0.3920   -0.0236    8.3695 C   0  0  0  0  0  0  0  0  0  0  0  0
   -1.5982   -0.0428    9.0763 C   0  0  0  0  0  0  0  0  0  0  0  0
   -2.6292   -0.0545    8.1179 C   0  0  0  0  0  0  0  0  0  0  0  0
   -2.0865   -0.0432    6.8902 N   0  0  0  0  0  0  0  0  0  0  0  0
    1.3329    0.0150    3.7908 C   0  0  0  0  0  0  0  0  0  0  0  0
    2.4391    0.0451    4.3094 O   0  0  0  0  0  0  0  0  0  0  0  0
    3.3474    2.3331    2.1930 C   0  0  0  0  0  0  0  0  0  0  0  0
    3.7504    3.6188    1.8345 C   0  0  0  0  0  0  0  0  0  0  0  0
    3.3936    3.3889   -1.5505 H   0  0  0  0  0  0  0  0  0  0  0  0
    2.6543    1.0860   -0.9012 H   0  0  0  0  0  0  0  0  0  0  0  0
    2.3739   -0.6231    0.7380 H   0  0  0  0  0  0  0  0  0  0  0  0
    3.2429   -0.4378    2.2831 H   0  0  0  0  0  0  0  0  0  0  0  0
   -2.3158   -0.0897   -0.2255 Au  0  0  0  0  0  0  0  0  0  0  0  0
    1.2509    0.0071    6.2325 H   0  0  0  0  0  0  0  0  0  0  0  0
    0.6169   -0.0106    8.7779 H   0  0  0  0  0  0  0  0  0  0  0  0
   -1.7333   -0.0480   10.1555 H   0  0  0  0  0  0  0  0  0  0  0  0
   -3.7085   -0.0700    8.2599 H   0  0  0  0  0  0  0  0  0  0  0  0
   -2.5115   -0.0456    5.9391 H   0  0  0  0  0  0  0  0  0  0  0  0
    3.3504    2.0323    3.2422 H   0  0  0  0  0  0  0  0  0  0  0  0
    4.0670    4.3489    2.5814 H   0  0  0  0  0  0  0  0  0  0  0  0
  1  2  1  0  0  0  0
  2 23  2  0  0  0  0
  3  4  2  0  0  0  0
  3  2  1  0  0  0  0
  4  5  1  0  0  0  0
  5  6  1  0  0  0  0
  5 22  2  0  0  0  0
  6 27  1  0  0  0  0
  6  7  1  0  0  0  0
  7 20  1  0  0  0  0
  8  7  1  0  0  0  0
  8 10  2  0  0  0  0
  9  8  1  0  0  0  0
 10 11  2  0  0  0  0
 11 12  2  0  0  0  0
 11 13  1  0  0  0  0
 13 14  2  0  0  0  0
 14 29  1  0  0  0  0
 14 15  1  0  0  0  0
 15 16  2  0  0  0  0
 16 30  1  0  0  0  0
 16 17  1  0  0  0  0
 17 31  1  0  0  0  0
 18 32  1  0  0  0  0
 18 17  2  0  0  0  0
 19 15  1  0  0  0  0
 19 18  1  0  0  0  0
 20 21  2  0  0  0  0
 20 13  1  0  0  0  0
 22 34  1  0  0  0  0
 23 22  1  0  0  0  0
 23 35  1  0  0  0  0
 24  3  1  0  0  0  0
 25  4  1  0  0  0  0
 26  6  1  0  0  0  0
 28  9  1  0  0  0  0
 33 19  1  0  0  0  0
M  END
