000-754-335.xyz
 OpenBabel07262113353D
CN1CCN(CC1)N/C=C/1\C(=O)N=C(N(C1=O)c1cccc(c1)C)S
 46 48  0  0  0  0  0  0  0  0999 V2000
    4.6431   -0.3090    7.8980 C   0  0  0  0  0  0  0  0  0  0  0  0
    3.2101   -0.2521    8.0733 N   0  0  0  0  0  0  0  0  0  0  0  0
    2.6064   -1.5591    8.2908 C   0  0  0  0  0  0  0  0  0  0  0  0
    1.0954   -1.3943    8.5807 C   0  0  0  0  0  0  0  0  0  0  0  0
    0.5801   -0.1152    8.0892 N   0  0  0  0  0  0  0  0  0  0  0  0
    1.2376    0.9964    8.7933 C   0  0  0  0  0  0  0  0  0  0  0  0
    2.7450    0.7302    9.0364 C   0  0  0  0  0  0  0  0  0  0  0  0
    0.7469   -0.0152    6.7021 N   0  0  0  0  0  0  0  0  0  0  0  0
   -0.2961   -0.0239    5.8882 C   0  0  0  0  0  0  0  0  0  0  0  0
   -0.2014   -0.0006    4.5011 C   0  0  0  0  0  0  0  0  0  0  0  0
    1.1013    0.0034    3.8323 C   0  0  0  0  0  0  0  0  0  0  0  0
    2.1654    0.0063    4.4592 O   0  0  0  0  0  0  0  0  0  0  0  0
    1.1119    0.0000    2.4420 N   0  0  0  0  0  0  0  0  0  0  0  0
   -0.0000   -0.0000    1.7762 C   0  0  0  0  0  0  0  0  0  0  0  0
    0.0000    0.0000    0.0000 S   0  0  0  0  0  0  0  0  0  0  0  0
   -1.2621   -0.0010    2.3351 N   0  0  0  0  0  0  0  0  0  0  0  0
   -1.4461   -0.0036    3.7503 C   0  0  0  0  0  0  0  0  0  0  0  0
   -2.5736   -0.0086    4.2102 O   0  0  0  0  0  0  0  0  0  0  0  0
   -2.4404   -0.0003    1.5090 C   0  0  0  0  0  0  0  0  0  0  0  0
   -3.0299   -1.2131    1.1421 C   0  0  0  0  0  0  0  0  0  0  0  0
   -4.1667   -1.1942    0.3369 C   0  0  0  0  0  0  0  0  0  0  0  0
   -4.7066    0.0227   -0.0908 C   0  0  0  0  0  0  0  0  0  0  0  0
   -4.1260    1.2438    0.2792 C   0  0  0  0  0  0  0  0  0  0  0  0
   -4.6962    2.5608   -0.1821 C   0  0  0  0  0  0  0  0  0  0  0  0
   -2.9843    1.2140    1.0917 C   0  0  0  0  0  0  0  0  0  0  0  0
    5.1815   -0.6548    8.8098 H   0  0  0  0  0  0  0  0  0  0  0  0
    4.8881   -1.0007    7.0772 H   0  0  0  0  0  0  0  0  0  0  0  0
    5.0300    0.6854    7.6275 H   0  0  0  0  0  0  0  0  0  0  0  0
    3.0877   -2.1069    9.1342 H   0  0  0  0  0  0  0  0  0  0  0  0
    2.7646   -2.1635    7.3829 H   0  0  0  0  0  0  0  0  0  0  0  0
    0.5154   -2.2146    8.1343 H   0  0  0  0  0  0  0  0  0  0  0  0
    0.9006   -1.4110    9.6643 H   0  0  0  0  0  0  0  0  0  0  0  0
    0.7140    1.1526    9.7506 H   0  0  0  0  0  0  0  0  0  0  0  0
    1.0887    1.8975    8.1838 H   0  0  0  0  0  0  0  0  0  0  0  0
    2.9227    0.3983   10.0863 H   0  0  0  0  0  0  0  0  0  0  0  0
    3.3178    1.6601    8.9035 H   0  0  0  0  0  0  0  0  0  0  0  0
    1.6917    0.0145    6.2808 H   0  0  0  0  0  0  0  0  0  0  0  0
   -1.2829   -0.0559    6.3597 H   0  0  0  0  0  0  0  0  0  0  0  0
    2.3067   -0.0057   -0.2592 Au  0  0  0  0  0  0  0  0  0  0  0  0
   -2.5917   -2.1507    1.4869 H   0  0  0  0  0  0  0  0  0  0  0  0
   -4.6386   -2.1334    0.0398 H   0  0  0  0  0  0  0  0  0  0  0  0
   -5.5985    0.0250   -0.7227 H   0  0  0  0  0  0  0  0  0  0  0  0
   -4.8917    3.2310    0.6705 H   0  0  0  0  0  0  0  0  0  0  0  0
   -5.6400    2.4225   -0.7291 H   0  0  0  0  0  0  0  0  0  0  0  0
   -3.9925    3.0844   -0.8507 H   0  0  0  0  0  0  0  0  0  0  0  0
   -2.5021    2.1431    1.4034 H   0  0  0  0  0  0  0  0  0  0  0  0
  1  2  1  0  0  0  0
  1 26  1  0  0  0  0
  2  3  1  0  0  0  0
  2  7  1  0  0  0  0
  3  4  1  0  0  0  0
  3 29  1  0  0  0  0
  4 32  1  0  0  0  0
  5  4  1  0  0  0  0
  5  6  1  0  0  0  0
  6  7  1  0  0  0  0
  6 33  1  0  0  0  0
  7 35  1  0  0  0  0
  8  5  1  0  0  0  0
  9 38  1  0  0  0  0
  9  8  1  0  0  0  0
 10  9  2  0  0  0  0
 11 12  2  0  0  0  0
 11 10  1  0  0  0  0
 13 11  2  0  0  0  0
 14 16  1  0  0  0  0
 14 13  2  0  0  0  0
 15 14  1  0  0  0  0
 16 17  1  0  0  0  0
 17 18  2  0  0  0  0
 17 10  1  0  0  0  0
 19 16  1  0  0  0  0
 20 40  1  0  0  0  0
 20 19  1  0  0  0  0
 21 20  2  0  0  0  0
 22 23  2  0  0  0  0
 22 21  1  0  0  0  0
 23 25  1  0  0  0  0
 24 23  1  0  0  0  0
 24 43  1  0  0  0  0
 25 46  1  0  0  0  0
 25 19  2  0  0  0  0
 27  1  1  0  0  0  0
 28  1  1  0  0  0  0
 30  3  1  0  0  0  0
 31  4  1  0  0  0  0
 34  6  1  0  0  0  0
 36  7  1  0  0  0  0
 37  8  1  0  0  0  0
 39 15  1  0  0  0  0
 41 21  1  0  0  0  0
 42 22  1  0  0  0  0
 44 24  1  0  0  0  0
 45 24  1  0  0  0  0
M  END
