000-829-371.xyz
 OpenBabel07262113373D
SC1=NC(=O)/C(=C\NN2CCOCC2)/C(=N1)O
 29 30  0  0  0  0  0  0  0  0999 V2000
    2.6674    0.0077    4.0015 O   0  0  0  0  0  0  0  0  0  0  0  0
    1.4048    0.0211    3.5450 C   0  0  0  0  0  0  0  0  0  0  0  0
    1.2725    0.0000    2.2487 N   0  0  0  0  0  0  0  0  0  0  0  0
   -0.0000    0.0000    1.7643 C   0  0  0  0  0  0  0  0  0  0  0  0
    0.0000    0.0000    0.0000 S   0  0  0  0  0  0  0  0  0  0  0  0
   -1.1291   -0.0081    2.4364 N   0  0  0  0  0  0  0  0  0  0  0  0
   -1.0704    0.0072    3.8036 C   0  0  0  0  0  0  0  0  0  0  0  0
   -2.1011   -0.0037    4.4995 O   0  0  0  0  0  0  0  0  0  0  0  0
    0.2721    0.0564    4.4309 C   0  0  0  0  0  0  0  0  0  0  0  0
    0.3799    0.1890    5.8131 C   0  0  0  0  0  0  0  0  0  0  0  0
   -0.6718    0.2099    6.6183 N   0  0  0  0  0  0  0  0  0  0  0  0
   -0.5273    0.4340    7.9843 N   0  0  0  0  0  0  0  0  0  0  0  0
   -1.0097    1.7712    8.4021 C   0  0  0  0  0  0  0  0  0  0  0  0
   -2.4100    1.7107    8.9994 C   0  0  0  0  0  0  0  0  0  0  0  0
   -2.4533    0.8668   10.1389 O   0  0  0  0  0  0  0  0  0  0  0  0
   -1.4885   -0.1692   10.1534 C   0  0  0  0  0  0  0  0  0  0  0  0
   -1.1477   -0.6578    8.7539 C   0  0  0  0  0  0  0  0  0  0  0  0
    2.6844   -0.0810    4.9623 H   0  0  0  0  0  0  0  0  0  0  0  0
   -2.2771   -0.0046   -0.3783 Au  0  0  0  0  0  0  0  0  0  0  0  0
    1.3379    0.3056    6.3348 H   0  0  0  0  0  0  0  0  0  0  0  0
   -1.5888    0.1134    6.1128 H   0  0  0  0  0  0  0  0  0  0  0  0
   -0.3087    2.1795    9.1482 H   0  0  0  0  0  0  0  0  0  0  0  0
   -0.9849    2.4371    7.5286 H   0  0  0  0  0  0  0  0  0  0  0  0
   -3.1290    1.3602    8.2321 H   0  0  0  0  0  0  0  0  0  0  0  0
   -2.7352    2.7146    9.3162 H   0  0  0  0  0  0  0  0  0  0  0  0
   -0.5621    0.1623   10.6633 H   0  0  0  0  0  0  0  0  0  0  0  0
   -1.9073   -0.9994   10.7422 H   0  0  0  0  0  0  0  0  0  0  0  0
   -2.0766   -1.0067    8.2609 H   0  0  0  0  0  0  0  0  0  0  0  0
   -0.4575   -1.5158    8.7998 H   0  0  0  0  0  0  0  0  0  0  0  0
  1 18  1  0  0  0  0
  2  1  1  0  0  0  0
  2  9  1  0  0  0  0
  3  2  2  0  0  0  0
  4  3  2  0  0  0  0
  4  6  2  0  0  0  0
  5  4  1  0  0  0  0
  6  7  2  0  0  0  0
  7  9  1  0  0  0  0
  7  8  2  0  0  0  0
  9 10  2  0  0  0  0
 10 20  1  0  0  0  0
 10 11  1  0  0  0  0
 11 12  1  0  0  0  0
 12 13  1  0  0  0  0
 12 17  1  0  0  0  0
 13 14  1  0  0  0  0
 13 22  1  0  0  0  0
 14 25  1  0  0  0  0
 14 15  1  0  0  0  0
 15 16  1  0  0  0  0
 16 26  1  0  0  0  0
 16 27  1  0  0  0  0
 17 29  1  0  0  0  0
 17 16  1  0  0  0  0
 19  5  1  0  0  0  0
 21 11  1  0  0  0  0
 23 13  1  0  0  0  0
 24 14  1  0  0  0  0
 28 17  1  0  0  0  0
M  END
