000-786-903.xyz
 OpenBabel07262113363D
Brc1cccc(c1)N1C(=NC(=O)/C(=C\c2cc(Cl)cc(c2O)Br)/C1=O)S
 35 37  0  0  0  0  0  0  0  0999 V2000
   -2.2215    1.3283    6.4745 O   0  0  0  0  0  0  0  0  0  0  0  0
   -1.6105    0.5909    7.3684 C   0  0  0  0  0  0  0  0  0  0  0  0
   -2.1155    0.5857    8.6999 C   0  0  0  0  0  0  0  0  0  0  0  0
   -3.6836    1.5866    9.0695 Br  0  0  0  0  0  0  0  0  0  0  0  0
   -1.5107   -0.1261    9.7215 C   0  0  0  0  0  0  0  0  0  0  0  0
   -0.3411   -0.8590    9.4533 C   0  0  0  0  0  0  0  0  0  0  0  0
    0.4239   -1.7498   10.7457 Cl  0  0  0  0  0  0  0  0  0  0  0  0
    0.2088   -0.8497    8.1889 C   0  0  0  0  0  0  0  0  0  0  0  0
   -0.4112   -0.1551    7.1099 C   0  0  0  0  0  0  0  0  0  0  0  0
    0.3570   -0.1613    5.8877 C   0  0  0  0  0  0  0  0  0  0  0  0
    0.1560    0.0095    4.5344 C   0  0  0  0  0  0  0  0  0  0  0  0
   -1.1262    0.0333    3.8055 C   0  0  0  0  0  0  0  0  0  0  0  0
   -2.2228    0.0361    4.3840 O   0  0  0  0  0  0  0  0  0  0  0  0
   -1.1129    0.0022    2.4332 N   0  0  0  0  0  0  0  0  0  0  0  0
   -0.0000   -0.0000    1.7610 C   0  0  0  0  0  0  0  0  0  0  0  0
    0.0000    0.0000    0.0000 S   0  0  0  0  0  0  0  0  0  0  0  0
    1.2521    0.0000    2.3369 N   0  0  0  0  0  0  0  0  0  0  0  0
    1.4166   -0.0178    3.7446 C   0  0  0  0  0  0  0  0  0  0  0  0
    2.5358   -0.0546    4.2102 O   0  0  0  0  0  0  0  0  0  0  0  0
    2.4435   -0.0017    1.5272 C   0  0  0  0  0  0  0  0  0  0  0  0
    3.0419    1.2096    1.1758 C   0  0  0  0  0  0  0  0  0  0  0  0
    4.1912    1.1959    0.3853 C   0  0  0  0  0  0  0  0  0  0  0  0
    4.7407   -0.0132   -0.0483 C   0  0  0  0  0  0  0  0  0  0  0  0
    4.1296   -1.2148    0.3215 C   0  0  0  0  0  0  0  0  0  0  0  0
    4.8707   -2.8667   -0.2616 Br  0  0  0  0  0  0  0  0  0  0  0  0
    2.9814   -1.2225    1.1137 C   0  0  0  0  0  0  0  0  0  0  0  0
   -2.2266    0.8410    5.5718 H   0  0  0  0  0  0  0  0  0  0  0  0
   -1.9332   -0.1153   10.7261 H   0  0  0  0  0  0  0  0  0  0  0  0
    1.1384   -1.3894    8.0053 H   0  0  0  0  0  0  0  0  0  0  0  0
    1.4138   -0.3760    6.0844 H   0  0  0  0  0  0  0  0  0  0  0  0
   -2.3071    0.0137   -0.2782 Au  0  0  0  0  0  0  0  0  0  0  0  0
    2.6031    2.1473    1.5192 H   0  0  0  0  0  0  0  0  0  0  0  0
    4.6679    2.1363    0.1014 H   0  0  0  0  0  0  0  0  0  0  0  0
    5.6383   -0.0263   -0.6679 H   0  0  0  0  0  0  0  0  0  0  0  0
    2.5038   -2.1580    1.4038 H   0  0  0  0  0  0  0  0  0  0  0  0
  1  2  1  0  0  0  0
  2  3  1  0  0  0  0
  3  4  1  0  0  0  0
  3  5  2  0  0  0  0
  5 28  1  0  0  0  0
  6  5  1  0  0  0  0
  6  7  1  0  0  0  0
  8  6  2  0  0  0  0
  9  2  2  0  0  0  0
  9  8  1  0  0  0  0
 10 30  1  0  0  0  0
 10  9  1  0  0  0  0
 11 10  2  0  0  0  0
 12 13  2  0  0  0  0
 12 11  1  0  0  0  0
 14 12  2  0  0  0  0
 15 17  1  0  0  0  0
 15 14  2  0  0  0  0
 16 15  1  0  0  0  0
 17 18  1  0  0  0  0
 18 19  2  0  0  0  0
 18 11  1  0  0  0  0
 20 17  1  0  0  0  0
 21 32  1  0  0  0  0
 21 20  1  0  0  0  0
 22 21  2  0  0  0  0
 23 24  2  0  0  0  0
 23 22  1  0  0  0  0
 24 26  1  0  0  0  0
 25 24  1  0  0  0  0
 26 35  1  0  0  0  0
 26 20  2  0  0  0  0
 27  1  1  0  0  0  0
 29  8  1  0  0  0  0
 31 16  1  0  0  0  0
 33 22  1  0  0  0  0
 34 23  1  0  0  0  0
M  END
