000-725-432.xyz
 OpenBabel07262113333D
COc1ccc2c(c1)cc(c(n2)N1CCOCC1)/C=C/1\SC(=NC1=O)S
 43 46  0  0  1  0  0  0  0  0999 V2000
    6.0837    1.6022   10.7170 C   0  0  0  0  0  0  0  0  0  0  0  0
    6.9275    1.1701    9.6739 O   0  0  0  0  0  0  0  0  0  0  0  0
    6.3674    0.6341    8.5642 C   0  0  0  0  0  0  0  0  0  0  0  0
    7.2931    0.2269    7.5590 C   0  0  0  0  0  0  0  0  0  0  0  0
    6.8579   -0.3375    6.3848 C   0  0  0  0  0  0  0  0  0  0  0  0
    5.4690   -0.5302    6.1443 C   0  0  0  0  0  0  0  0  0  0  0  0
    5.0630   -1.1439    5.0069 N   0  0  0  0  0  0  0  0  0  0  0  0
    3.7831   -1.3053    4.7477 C   0  0  0  0  0  0  0  0  0  0  0  0
    3.4573   -2.0402    3.5969 N   0  0  0  0  0  0  0  0  0  0  0  0
    2.5582   -3.1850    3.7581 C   0  0  0  0  0  0  0  0  0  0  0  0
    2.1111   -3.7115    2.4036 C   0  0  0  0  0  0  0  0  0  0  0  0
    3.2192   -4.0298    1.5741 O   0  0  0  0  0  0  0  0  0  0  0  0
    4.0644   -2.9493    1.3855 C   0  0  0  0  0  0  0  0  0  0  0  0
    4.5590   -2.3198    2.6855 C   0  0  0  0  0  0  0  0  0  0  0  0
    2.7496   -0.7618    5.6124 C   0  0  0  0  0  0  0  0  0  0  0  0
    1.3307   -0.6257    5.2761 C   0  0  0  0  0  0  0  0  0  0  0  0
    0.7824   -0.3105    4.0827 C   0  0  0  0  0  0  0  0  0  0  0  0
    1.6061   -0.0000    2.5755 S   0  0  0  0  0  0  0  0  0  0  0  0
   -0.0000   -0.0000    1.7526 C   0  0  0  0  0  0  0  0  0  0  0  0
    0.0000    0.0000    0.0000 S   0  0  0  0  0  0  0  0  0  0  0  0
   -1.0427   -0.0628    2.4975 N   0  0  0  0  0  0  0  0  0  0  0  0
   -0.7211   -0.1866    3.8657 C   0  0  0  0  0  0  0  0  0  0  0  0
   -1.5251   -0.2433    4.7637 O   0  0  0  0  0  0  0  0  0  0  0  0
    3.1703   -0.2440    6.8301 C   0  0  0  0  0  0  0  0  0  0  0  0
    4.5415   -0.1064    7.1453 C   0  0  2  0  0  0  0  0  0  0  0  0
    5.0080    0.4694    8.3592 C   0  0  0  0  0  0  0  0  0  0  0  0
    6.7360    1.9952   11.5076 H   0  0  0  0  0  0  0  0  0  0  0  0
    5.4823    0.7701   11.1253 H   0  0  0  0  0  0  0  0  0  0  0  0
    5.3997    2.4026   10.3822 H   0  0  0  0  0  0  0  0  0  0  0  0
    8.3552    0.3776    7.7609 H   0  0  0  0  0  0  0  0  0  0  0  0
    7.5598   -0.6612    5.6145 H   0  0  0  0  0  0  0  0  0  0  0  0
    3.0738   -3.9982    4.3092 H   0  0  0  0  0  0  0  0  0  0  0  0
    1.6737   -2.8923    4.3366 H   0  0  0  0  0  0  0  0  0  0  0  0
    1.5304   -4.6360    2.5235 H   0  0  0  0  0  0  0  0  0  0  0  0
    1.4763   -2.9618    1.8915 H   0  0  0  0  0  0  0  0  0  0  0  0
    3.5272   -2.1373    0.7571 H   0  0  0  0  0  0  0  0  0  0  0  0
    4.9112   -3.2769    0.7664 H   0  0  0  0  0  0  0  0  0  0  0  0
    5.1037   -1.3892    2.4781 H   0  0  0  0  0  0  0  0  0  0  0  0
    5.2891   -3.0163    3.1436 H   0  0  0  0  0  0  0  0  0  0  0  0
    0.6121   -0.6945    6.1014 H   0  0  0  0  0  0  0  0  0  0  0  0
    2.0642   -1.1401   -0.1505 Au  0  0  0  0  0  0  0  0  0  0  0  0
    2.4214    0.1392    7.5290 H   0  0  0  0  0  0  0  0  0  0  0  0
    4.2750    0.7804    9.1032 H   0  0  0  0  0  0  0  0  0  0  0  0
  1 28  1  0  0  0  0
  1 27  1  0  0  0  0
  2  1  1  0  0  0  0
  3  2  1  0  0  0  0
  4 30  1  0  0  0  0
  4  3  1  0  0  0  0
  5  4  2  0  0  0  0
  6  5  1  0  0  0  0
  7  6  2  0  0  0  0
  8  7  2  0  0  0  0
  8 15  1  0  0  0  0
  9 10  1  0  0  0  0
  9  8  1  0  0  0  0
 10 32  1  0  0  0  0
 10 33  1  0  0  0  0
 11 34  1  0  0  0  0
 11 10  1  0  0  0  0
 12 11  1  0  0  0  0
 13 12  1  0  0  0  0
 13 14  1  0  0  0  0
 14 39  1  0  0  0  0
 14  9  1  0  0  0  0
 15 24  2  0  0  0  0
 16 15  1  0  0  0  0
 16 40  1  0  0  0  0
 17 16  2  0  0  0  0
 18 17  1  0  0  0  0
 19 21  2  0  0  0  0
 19 18  1  0  0  0  0
 20 19  1  0  0  0  0
 21 22  2  0  0  0  0
 22 17  1  0  0  0  0
 22 23  2  0  0  0  0
 24 25  1  0  0  0  0
 24 42  1  0  0  0  0
 25  6  1  6  0  0  0
 25 26  1  0  0  0  0
 26  3  2  0  0  0  0
 26 43  1  0  0  0  0
 29  1  1  0  0  0  0
 31  5  1  0  0  0  0
 35 11  1  0  0  0  0
 36 13  1  0  0  0  0
 37 13  1  0  0  0  0
 38 14  1  0  0  0  0
 41 20  1  0  0  0  0
M  RAD  1  25   2
M  END
