000-753-474.xyz
 OpenBabel07262113353D
SC1=NC(=O)/C(=C/c2cccc(c2)O)/C(=N1)O
 25 26  0  0  0  0  0  0  0  0999 V2000
   -2.3575    0.0123    4.3539 O   0  0  0  0  0  0  0  0  0  0  0  0
   -1.1925    0.0744    3.7100 C   0  0  0  0  0  0  0  0  0  0  0  0
   -1.2194   -0.0123    2.4145 N   0  0  0  0  0  0  0  0  0  0  0  0
    0.0000   -0.0000    1.7638 C   0  0  0  0  0  0  0  0  0  0  0  0
    0.0000    0.0000    0.0000 S   0  0  0  0  0  0  0  0  0  0  0  0
    1.1830   -0.0000    2.2881 N   0  0  0  0  0  0  0  0  0  0  0  0
    1.3155    0.0363    3.6684 C   0  0  0  0  0  0  0  0  0  0  0  0
    2.4004   -0.0206    4.2144 O   0  0  0  0  0  0  0  0  0  0  0  0
    0.0358    0.1778    4.4820 C   0  0  0  0  0  0  0  0  0  0  0  0
    0.2063    0.3021    5.8323 C   0  0  0  0  0  0  0  0  0  0  0  0
   -0.6543    0.5423    6.9814 C   0  0  0  0  0  0  0  0  0  0  0  0
   -1.9066    1.1881    6.9481 C   0  0  0  0  0  0  0  0  0  0  0  0
   -2.6051    1.4056    8.1348 C   0  0  0  0  0  0  0  0  0  0  0  0
   -2.0968    0.9808    9.3623 C   0  0  0  0  0  0  0  0  0  0  0  0
   -0.8470    0.3445    9.4145 C   0  0  0  0  0  0  0  0  0  0  0  0
   -0.3870   -0.0420   10.6288 O   0  0  0  0  0  0  0  0  0  0  0  0
   -0.1272    0.1517    8.2342 C   0  0  0  0  0  0  0  0  0  0  0  0
   -3.0391   -0.1094    3.6690 H   0  0  0  0  0  0  0  0  0  0  0  0
   -2.2361   -0.0309   -0.5437 Au  0  0  0  0  0  0  0  0  0  0  0  0
    1.2673    0.1949    6.0923 H   0  0  0  0  0  0  0  0  0  0  0  0
   -2.3178    1.5312    6.0038 H   0  0  0  0  0  0  0  0  0  0  0  0
   -3.5690    1.9189    8.1053 H   0  0  0  0  0  0  0  0  0  0  0  0
   -2.6424    1.1416   10.2938 H   0  0  0  0  0  0  0  0  0  0  0  0
    0.4797   -0.4587   10.5337 H   0  0  0  0  0  0  0  0  0  0  0  0
    0.8592   -0.3199    8.2731 H   0  0  0  0  0  0  0  0  0  0  0  0
  2  1  1  0  0  0  0
  2  9  1  0  0  0  0
  3  2  2  0  0  0  0
  4  6  2  0  0  0  0
  4  3  2  0  0  0  0
  5  4  1  0  0  0  0
  6  7  2  0  0  0  0
  7  8  2  0  0  0  0
  7  9  1  0  0  0  0
  9 10  2  0  0  0  0
 10 20  1  0  0  0  0
 10 11  1  0  0  0  0
 11 17  1  0  0  0  0
 12 11  2  0  0  0  0
 12 13  1  0  0  0  0
 13 14  2  0  0  0  0
 14 15  1  0  0  0  0
 14 23  1  0  0  0  0
 15 16  1  0  0  0  0
 17 25  1  0  0  0  0
 17 15  2  0  0  0  0
 18  1  1  0  0  0  0
 19  5  1  0  0  0  0
 21 12  1  0  0  0  0
 22 13  1  0  0  0  0
 24 16  1  0  0  0  0
M  END
