000-773-240.xyz
 OpenBabel07262113363D
SC1=NC(=O)/C(=C/C=C/c2coc3c(c2=O)ccc(c3)Br)/C(=N1)O
 33 35  0  0  0  0  0  0  0  0999 V2000
    2.3507    0.0004    4.3676 O   0  0  0  0  0  0  0  0  0  0  0  0
    1.1824    0.0003    3.7144 C   0  0  0  0  0  0  0  0  0  0  0  0
    1.2206    0.0000    2.4162 N   0  0  0  0  0  0  0  0  0  0  0  0
    0.0000   -0.0000    1.7657 C   0  0  0  0  0  0  0  0  0  0  0  0
    0.0000    0.0000    0.0000 S   0  0  0  0  0  0  0  0  0  0  0  0
   -1.1844    0.0002    2.2865 N   0  0  0  0  0  0  0  0  0  0  0  0
   -1.3228    0.0004    3.6694 C   0  0  0  0  0  0  0  0  0  0  0  0
   -2.4109    0.0005    4.2131 O   0  0  0  0  0  0  0  0  0  0  0  0
   -0.0475    0.0006    4.4803 C   0  0  0  0  0  0  0  0  0  0  0  0
   -0.1659    0.0010    5.8473 C   0  0  0  0  0  0  0  0  0  0  0  0
    0.8456    0.0015    6.8576 C   0  0  0  0  0  0  0  0  0  0  0  0
    0.4995    0.0023    8.1748 C   0  0  0  0  0  0  0  0  0  0  0  0
    1.3896    0.0037    9.3214 C   0  0  0  0  0  0  0  0  0  0  0  0
    2.7508    0.0063    9.2195 C   0  0  0  0  0  0  0  0  0  0  0  0
    3.5990    0.0081   10.2532 O   0  0  0  0  0  0  0  0  0  0  0  0
    3.1146    0.0076   11.5323 C   0  0  0  0  0  0  0  0  0  0  0  0
    4.0581    0.0100   12.5643 C   0  0  0  0  0  0  0  0  0  0  0  0
    3.5932    0.0097   13.8754 C   0  0  0  0  0  0  0  0  0  0  0  0
    4.8450    0.0134   15.3017 Br  0  0  0  0  0  0  0  0  0  0  0  0
    2.2167    0.0069   14.1679 C   0  0  0  0  0  0  0  0  0  0  0  0
    1.3035    0.0045   13.1238 C   0  0  0  0  0  0  0  0  0  0  0  0
    1.7353    0.0048   11.7859 C   0  0  0  0  0  0  0  0  0  0  0  0
    0.7665    0.0026   10.6691 C   0  0  0  0  0  0  0  0  0  0  0  0
   -0.4423    0.0002   10.8401 O   0  0  0  0  0  0  0  0  0  0  0  0
    3.0398    0.0002    3.6798 H   0  0  0  0  0  0  0  0  0  0  0  0
    2.2346   -0.0025   -0.5490 Au  0  0  0  0  0  0  0  0  0  0  0  0
   -1.2070    0.0012    6.1917 H   0  0  0  0  0  0  0  0  0  0  0  0
    1.8901    0.0014    6.5458 H   0  0  0  0  0  0  0  0  0  0  0  0
   -0.5601    0.0019    8.4486 H   0  0  0  0  0  0  0  0  0  0  0  0
    3.2885    0.0074    8.2701 H   0  0  0  0  0  0  0  0  0  0  0  0
    5.1216    0.0122   12.3269 H   0  0  0  0  0  0  0  0  0  0  0  0
    1.8819    0.0067   15.2055 H   0  0  0  0  0  0  0  0  0  0  0  0
    0.2275    0.0023   13.3072 H   0  0  0  0  0  0  0  0  0  0  0  0
  2  1  1  0  0  0  0
  2  9  1  0  0  0  0
  3  2  2  0  0  0  0
  4  6  2  0  0  0  0
  4  3  2  0  0  0  0
  5  4  1  0  0  0  0
  6  7  2  0  0  0  0
  7  8  2  0  0  0  0
  7  9  1  0  0  0  0
  9 10  2  0  0  0  0
 10 27  1  0  0  0  0
 10 11  1  0  0  0  0
 11 12  2  0  0  0  0
 12 29  1  0  0  0  0
 12 13  1  0  0  0  0
 13 23  1  0  0  0  0
 14 13  2  0  0  0  0
 14 15  1  0  0  0  0
 15 16  1  0  0  0  0
 16 22  2  0  0  0  0
 16 17  1  0  0  0  0
 17 18  2  0  0  0  0
 18 20  1  0  0  0  0
 18 19  1  0  0  0  0
 20 32  1  0  0  0  0
 21 33  1  0  0  0  0
 21 20  2  0  0  0  0
 22 21  1  0  0  0  0
 23 24  2  0  0  0  0
 23 22  1  0  0  0  0
 25  1  1  0  0  0  0
 26  5  1  0  0  0  0
 28 11  1  0  0  0  0
 30 14  1  0  0  0  0
 31 17  1  0  0  0  0
M  END
