000-837-100.xyz
 OpenBabel07262113373D
Clc1ccc(cc1)N1C(=NC(=O)/C(=C/c2ccc(o2)N2CCCCC2)/C1=O)S
 46 49  0  0  0  0  0  0  0  0999 V2000
    0.0000    0.0000    0.0000 S   0  0  0  0  0  0  0  0  0  0  0  0
    0.0000   -0.0000    1.7765 C   0  0  0  0  0  0  0  0  0  0  0  0
    1.1038    0.0000    2.4457 N   0  0  0  0  0  0  0  0  0  0  0  0
    1.0996    0.0011    3.8433 C   0  0  0  0  0  0  0  0  0  0  0  0
    2.1522   -0.0013    4.4607 O   0  0  0  0  0  0  0  0  0  0  0  0
   -0.2259    0.0059    4.5259 C   0  0  0  0  0  0  0  0  0  0  0  0
   -0.1907    0.0124    5.9123 C   0  0  0  0  0  0  0  0  0  0  0  0
   -1.1643    0.0200    6.9157 C   0  0  0  0  0  0  0  0  0  0  0  0
   -2.5582    0.0193    7.0339 C   0  0  0  0  0  0  0  0  0  0  0  0
   -2.8845    0.0262    8.3969 C   0  0  0  0  0  0  0  0  0  0  0  0
   -1.6606    0.0333    9.0866 C   0  0  0  0  0  0  0  0  0  0  0  0
   -0.6406    0.0304    8.2265 O   0  0  0  0  0  0  0  0  0  0  0  0
   -1.3871    0.0456   10.4042 N   0  0  0  0  0  0  0  0  0  0  0  0
   -0.0196   -0.0861   10.9138 C   0  0  0  0  0  0  0  0  0  0  0  0
    0.0037   -1.0615   12.0900 C   0  0  0  0  0  0  0  0  0  0  0  0
   -0.9235   -0.6056   13.2410 C   0  0  0  0  0  0  0  0  0  0  0  0
   -1.9845    0.3968   12.7550 C   0  0  0  0  0  0  0  0  0  0  0  0
   -2.4972    0.0613   11.3578 C   0  0  0  0  0  0  0  0  0  0  0  0
   -1.4517    0.0033    3.7484 C   0  0  0  0  0  0  0  0  0  0  0  0
   -2.5954    0.0032    4.1799 O   0  0  0  0  0  0  0  0  0  0  0  0
   -1.2652    0.0002    2.3367 N   0  0  0  0  0  0  0  0  0  0  0  0
   -2.4414   -0.0027    1.5129 C   0  0  0  0  0  0  0  0  0  0  0  0
   -3.0093   -1.2158    1.1153 C   0  0  0  0  0  0  0  0  0  0  0  0
   -4.1478   -1.2243    0.3116 C   0  0  0  0  0  0  0  0  0  0  0  0
   -4.7137   -0.0086   -0.0831 C   0  0  0  0  0  0  0  0  0  0  0  0
   -6.1389   -0.0122   -1.0917 Cl  0  0  0  0  0  0  0  0  0  0  0  0
   -4.1583    1.2101    0.3177 C   0  0  0  0  0  0  0  0  0  0  0  0
   -3.0197    1.2075    1.1212 C   0  0  0  0  0  0  0  0  0  0  0  0
    2.3099   -0.0004   -0.2419 Au  0  0  0  0  0  0  0  0  0  0  0  0
    0.8352    0.0129    6.2978 H   0  0  0  0  0  0  0  0  0  0  0  0
   -3.2235    0.0088    6.1774 H   0  0  0  0  0  0  0  0  0  0  0  0
   -3.8757    0.0123    8.8392 H   0  0  0  0  0  0  0  0  0  0  0  0
    0.3700    0.9023   11.2192 H   0  0  0  0  0  0  0  0  0  0  0  0
    0.6174   -0.4411   10.0950 H   0  0  0  0  0  0  0  0  0  0  0  0
    1.0403   -1.1785   12.4414 H   0  0  0  0  0  0  0  0  0  0  0  0
   -0.3132   -2.0483   11.7154 H   0  0  0  0  0  0  0  0  0  0  0  0
   -0.3374   -0.1421   14.0500 H   0  0  0  0  0  0  0  0  0  0  0  0
   -1.4166   -1.4855   13.6841 H   0  0  0  0  0  0  0  0  0  0  0  0
   -1.5619    1.4147   12.7336 H   0  0  0  0  0  0  0  0  0  0  0  0
   -2.8366    0.4307   13.4505 H   0  0  0  0  0  0  0  0  0  0  0  0
   -3.2362    0.8117   11.0331 H   0  0  0  0  0  0  0  0  0  0  0  0
   -3.0125   -0.9192   11.3602 H   0  0  0  0  0  0  0  0  0  0  0  0
   -2.5496   -2.1523    1.4349 H   0  0  0  0  0  0  0  0  0  0  0  0
   -4.5990   -2.1634   -0.0104 H   0  0  0  0  0  0  0  0  0  0  0  0
   -4.6177    2.1467    0.0003 H   0  0  0  0  0  0  0  0  0  0  0  0
   -2.5682    2.1463    1.4454 H   0  0  0  0  0  0  0  0  0  0  0  0
  1  2  1  0  0  0  0
  2 21  1  0  0  0  0
  2  3  2  0  0  0  0
  3  4  2  0  0  0  0
  4  5  2  0  0  0  0
  4  6  1  0  0  0  0
  6  7  2  0  0  0  0
  7 30  1  0  0  0  0
  7  8  1  0  0  0  0
  8  9  2  0  0  0  0
  8 12  1  0  0  0  0
  9 10  1  0  0  0  0
 10 32  1  0  0  0  0
 10 11  2  0  0  0  0
 11 13  1  0  0  0  0
 12 11  1  0  0  0  0
 13 14  1  0  0  0  0
 13 18  1  0  0  0  0
 14 33  1  0  0  0  0
 14 15  1  0  0  0  0
 15 35  1  0  0  0  0
 15 16  1  0  0  0  0
 16 38  1  0  0  0  0
 16 37  1  0  0  0  0
 17 16  1  0  0  0  0
 17 40  1  0  0  0  0
 18 42  1  0  0  0  0
 18 17  1  0  0  0  0
 19 20  2  0  0  0  0
 19  6  1  0  0  0  0
 21 19  1  0  0  0  0
 22 21  1  0  0  0  0
 23 43  1  0  0  0  0
 23 22  2  0  0  0  0
 24 23  1  0  0  0  0
 25 24  2  0  0  0  0
 25 27  1  0  0  0  0
 26 25  1  0  0  0  0
 27 28  2  0  0  0  0
 28 46  1  0  0  0  0
 28 22  1  0  0  0  0
 29  1  1  0  0  0  0
 31  9  1  0  0  0  0
 34 14  1  0  0  0  0
 36 15  1  0  0  0  0
 39 17  1  0  0  0  0
 41 18  1  0  0  0  0
 44 24  1  0  0  0  0
 45 27  1  0  0  0  0
M  END
