000-842-508.xyz
 OpenBabel07262113383D
Cc1cccc(c1)N1C(=NC(=O)/C(=C/c2ccc(o2)N2CCCCC2)/C1=O)S
 49 52  0  0  0  0  0  0  0  0999 V2000
    5.7001   -1.6076    1.2537 C   0  0  0  0  0  0  0  0  0  0  0  0
    4.6594   -0.5185    1.3128 C   0  0  0  0  0  0  0  0  0  0  0  0
    4.9268    0.7666    0.8060 C   0  0  0  0  0  0  0  0  0  0  0  0
    3.9875    1.7918    0.9203 C   0  0  0  0  0  0  0  0  0  0  0  0
    2.7503    1.5521    1.5235 C   0  0  0  0  0  0  0  0  0  0  0  0
    2.4572    0.2722    1.9934 C   0  0  0  0  0  0  0  0  0  0  0  0
    3.4106   -0.7513    1.9079 C   0  0  0  0  0  0  0  0  0  0  0  0
    1.1650   -0.0000    2.5444 N   0  0  0  0  0  0  0  0  0  0  0  0
    0.0000   -0.0000    1.7846 C   0  0  0  0  0  0  0  0  0  0  0  0
    0.0000    0.0000    0.0000 S   0  0  0  0  0  0  0  0  0  0  0  0
   -1.1865    0.0233    2.2719 N   0  0  0  0  0  0  0  0  0  0  0  0
   -1.4114    0.0534    3.6485 C   0  0  0  0  0  0  0  0  0  0  0  0
   -2.5281    0.2497    4.0959 O   0  0  0  0  0  0  0  0  0  0  0  0
   -0.2364   -0.2298    4.5260 C   0  0  0  0  0  0  0  0  0  0  0  0
   -0.5433   -0.4336    5.8627 C   0  0  0  0  0  0  0  0  0  0  0  0
    0.1716   -0.7354    7.0250 C   0  0  0  0  0  0  0  0  0  0  0  0
   -0.2978   -0.9056    8.3327 C   0  0  0  0  0  0  0  0  0  0  0  0
    0.7980   -1.1867    9.1619 C   0  0  0  0  0  0  0  0  0  0  0  0
    1.9189   -1.1820    8.3099 C   0  0  0  0  0  0  0  0  0  0  0  0
    1.5441   -0.9199    7.0580 O   0  0  0  0  0  0  0  0  0  0  0  0
    3.2337   -1.3892    8.5122 N   0  0  0  0  0  0  0  0  0  0  0  0
    3.7864   -1.5481    9.8502 C   0  0  0  0  0  0  0  0  0  0  0  0
    4.6443   -0.3362   10.2282 C   0  0  0  0  0  0  0  0  0  0  0  0
    5.7154   -0.0759    9.1623 C   0  0  0  0  0  0  0  0  0  0  0  0
    5.0883    0.0470    7.7689 C   0  0  0  0  0  0  0  0  0  0  0  0
    4.2137   -1.1673    7.4431 C   0  0  0  0  0  0  0  0  0  0  0  0
    1.1102   -0.2113    3.9639 C   0  0  0  0  0  0  0  0  0  0  0  0
    2.1636   -0.3154    4.5674 O   0  0  0  0  0  0  0  0  0  0  0  0
    6.3826   -1.5414    2.1186 H   0  0  0  0  0  0  0  0  0  0  0  0
    5.2421   -2.6075    1.2749 H   0  0  0  0  0  0  0  0  0  0  0  0
    6.3173   -1.5281    0.3459 H   0  0  0  0  0  0  0  0  0  0  0  0
    5.8894    0.9634    0.3268 H   0  0  0  0  0  0  0  0  0  0  0  0
    4.2153    2.7855    0.5285 H   0  0  0  0  0  0  0  0  0  0  0  0
    1.9975    2.3377    1.5985 H   0  0  0  0  0  0  0  0  0  0  0  0
    3.1663   -1.7336    2.3146 H   0  0  0  0  0  0  0  0  0  0  0  0
    1.9822   -0.9707   -0.6988 Au  0  0  0  0  0  0  0  0  0  0  0  0
   -1.6188   -0.3364    6.0502 H   0  0  0  0  0  0  0  0  0  0  0  0
   -1.3412   -0.8236    8.6313 H   0  0  0  0  0  0  0  0  0  0  0  0
    0.7896   -1.3660   10.2322 H   0  0  0  0  0  0  0  0  0  0  0  0
    4.4065   -2.4634    9.8623 H   0  0  0  0  0  0  0  0  0  0  0  0
    2.9707   -1.7026   10.5676 H   0  0  0  0  0  0  0  0  0  0  0  0
    5.1043   -0.5050   11.2156 H   0  0  0  0  0  0  0  0  0  0  0  0
    3.9873    0.5459   10.3213 H   0  0  0  0  0  0  0  0  0  0  0  0
    6.2889    0.8314    9.4100 H   0  0  0  0  0  0  0  0  0  0  0  0
    6.4374   -0.9134    9.1641 H   0  0  0  0  0  0  0  0  0  0  0  0
    5.8665    0.1505    6.9958 H   0  0  0  0  0  0  0  0  0  0  0  0
    4.4621    0.9542    7.7159 H   0  0  0  0  0  0  0  0  0  0  0  0
    4.8408   -2.0744    7.3664 H   0  0  0  0  0  0  0  0  0  0  0  0
    3.6821   -1.0338    6.4932 H   0  0  0  0  0  0  0  0  0  0  0  0
  1 30  1  0  0  0  0
  1  2  1  0  0  0  0
  1 29  1  0  0  0  0
  2  7  2  0  0  0  0
  3  4  2  0  0  0  0
  3  2  1  0  0  0  0
  4  5  1  0  0  0  0
  5 34  1  0  0  0  0
  5  6  2  0  0  0  0
  6  8  1  0  0  0  0
  7  6  1  0  0  0  0
  7 35  1  0  0  0  0
  8 27  1  0  0  0  0
  9 11  2  0  0  0  0
  9  8  1  0  0  0  0
 10  9  1  0  0  0  0
 11 12  2  0  0  0  0
 12 13  2  0  0  0  0
 12 14  1  0  0  0  0
 14 15  2  0  0  0  0
 15 37  1  0  0  0  0
 15 16  1  0  0  0  0
 16 20  1  0  0  0  0
 16 17  2  0  0  0  0
 17 38  1  0  0  0  0
 17 18  1  0  0  0  0
 18 39  1  0  0  0  0
 19 21  1  0  0  0  0
 19 18  2  0  0  0  0
 20 19  1  0  0  0  0
 21 22  1  0  0  0  0
 22 40  1  0  0  0  0
 22 23  1  0  0  0  0
 22 41  1  0  0  0  0
 23 43  1  0  0  0  0
 23 42  1  0  0  0  0
 24 45  1  0  0  0  0
 24 44  1  0  0  0  0
 24 23  1  0  0  0  0
 25 24  1  0  0  0  0
 26 25  1  0  0  0  0
 26 21  1  0  0  0  0
 27 14  1  0  0  0  0
 27 28  2  0  0  0  0
 31  1  1  0  0  0  0
 32  3  1  0  0  0  0
 33  4  1  0  0  0  0
 36 10  1  0  0  0  0
 46 25  1  0  0  0  0
 47 25  1  0  0  0  0
 48 26  1  0  0  0  0
 49 26  1  0  0  0  0
M  END
