000-832-972.xyz
 OpenBabel07262113373D
SC1=NC(=O)/C(=C/c2cc(n(c2C)c2ccc(cc2)I)C)/C(=N1)O
 38 40  0  0  0  0  0  0  0  0999 V2000
    4.5033   -0.0138    8.8243 C   0  0  0  0  0  0  0  0  0  0  0  0
    3.1381   -0.0186    8.2254 C   0  0  0  0  0  0  0  0  0  0  0  0
    2.7270   -0.0160    6.9210 C   0  0  0  0  0  0  0  0  0  0  0  0
    1.2817   -0.0051    6.8994 C   0  0  0  0  0  0  0  0  0  0  0  0
    0.3197   -0.0017    5.8501 C   0  0  0  0  0  0  0  0  0  0  0  0
    0.3188   -0.0013    4.4712 C   0  0  0  0  0  0  0  0  0  0  0  0
    1.4247   -0.0006    3.5468 C   0  0  0  0  0  0  0  0  0  0  0  0
    2.6795    0.0002    4.0086 O   0  0  0  0  0  0  0  0  0  0  0  0
    1.2837    0.0000    2.2511 N   0  0  0  0  0  0  0  0  0  0  0  0
    0.0000   -0.0000    1.7659 C   0  0  0  0  0  0  0  0  0  0  0  0
    0.0000    0.0000    0.0000 S   0  0  0  0  0  0  0  0  0  0  0  0
   -1.1115    0.0002    2.4435 N   0  0  0  0  0  0  0  0  0  0  0  0
   -1.0531   -0.0002    3.8302 C   0  0  0  0  0  0  0  0  0  0  0  0
   -2.0685    0.0004    4.5086 O   0  0  0  0  0  0  0  0  0  0  0  0
    0.8633   -0.0002    8.2527 C   0  0  0  0  0  0  0  0  0  0  0  0
   -0.4974    0.0007    8.8611 C   0  0  0  0  0  0  0  0  0  0  0  0
    1.9866   -0.0079    9.0302 N   0  0  0  0  0  0  0  0  0  0  0  0
    1.9974   -0.0036   10.4564 C   0  0  0  0  0  0  0  0  0  0  0  0
    2.1874   -1.1990   11.1564 C   0  0  0  0  0  0  0  0  0  0  0  0
    2.2058   -1.1993   12.5524 C   0  0  0  0  0  0  0  0  0  0  0  0
    2.0281    0.0049   13.2413 C   0  0  0  0  0  0  0  0  0  0  0  0
    2.0511    0.0112   15.3614 I   0  0  0  0  0  0  0  0  0  0  0  0
    1.8356    1.2049   12.5492 C   0  0  0  0  0  0  0  0  0  0  0  0
    1.8242    1.1963   11.1531 C   0  0  0  0  0  0  0  0  0  0  0  0
    4.6921   -0.9108    9.4373 H   0  0  0  0  0  0  0  0  0  0  0  0
    4.6611    0.8603    9.4779 H   0  0  0  0  0  0  0  0  0  0  0  0
    5.2554    0.0164    8.0246 H   0  0  0  0  0  0  0  0  0  0  0  0
    3.3723   -0.0176    6.0528 H   0  0  0  0  0  0  0  0  0  0  0  0
   -0.7175    0.0019    6.2036 H   0  0  0  0  0  0  0  0  0  0  0  0
    3.2434    0.0013    3.2140 H   0  0  0  0  0  0  0  0  0  0  0  0
   -2.2861   -0.0009   -0.3366 Au  0  0  0  0  0  0  0  0  0  0  0  0
   -0.6862    0.9273    9.4280 H   0  0  0  0  0  0  0  0  0  0  0  0
   -1.2745   -0.0883    8.0929 H   0  0  0  0  0  0  0  0  0  0  0  0
   -0.6161   -0.8365    9.5680 H   0  0  0  0  0  0  0  0  0  0  0  0
    2.3174   -2.1304   10.6020 H   0  0  0  0  0  0  0  0  0  0  0  0
    2.3537   -2.1330   13.0966 H   0  0  0  0  0  0  0  0  0  0  0  0
    1.6993    2.1419   13.0907 H   0  0  0  0  0  0  0  0  0  0  0  0
    1.6833    2.1246   10.5961 H   0  0  0  0  0  0  0  0  0  0  0  0
  1 25  1  0  0  0  0
  1 26  1  0  0  0  0
  2  1  1  0  0  0  0
  2 17  1  0  0  0  0
  3  2  2  0  0  0  0
  4  3  1  0  0  0  0
  4 15  2  0  0  0  0
  5 29  1  0  0  0  0
  5  4  1  0  0  0  0
  6  5  2  0  0  0  0
  7  8  1  0  0  0  0
  7  6  1  0  0  0  0
  9  7  2  0  0  0  0
 10  9  2  0  0  0  0
 10 12  2  0  0  0  0
 11 10  1  0  0  0  0
 12 13  2  0  0  0  0
 13  6  1  0  0  0  0
 13 14  2  0  0  0  0
 15 16  1  0  0  0  0
 15 17  1  0  0  0  0
 16 32  1  0  0  0  0
 16 34  1  0  0  0  0
 17 18  1  0  0  0  0
 18 24  2  0  0  0  0
 18 19  1  0  0  0  0
 19 20  2  0  0  0  0
 20 36  1  0  0  0  0
 20 21  1  0  0  0  0
 21 22  1  0  0  0  0
 23 37  1  0  0  0  0
 23 21  2  0  0  0  0
 24 23  1  0  0  0  0
 27  1  1  0  0  0  0
 28  3  1  0  0  0  0
 30  8  1  0  0  0  0
 31 11  1  0  0  0  0
 33 16  1  0  0  0  0
 35 19  1  0  0  0  0
 38 24  1  0  0  0  0
M  END
