000-714-744.xyz
 OpenBabel07262113333D
O=C1N=C(S)N(C(=O)/C/1=C/c1ccc2c(c1)OCO2)c1ccccc1C
 40 43  0  0  0  0  0  0  0  0999 V2000
   -2.5650    2.4942    1.6327 C   0  0  0  0  0  0  0  0  0  0  0  0
   -3.0815    1.1706    1.1418 C   0  0  0  0  0  0  0  0  0  0  0  0
   -4.2123    1.0765    0.3208 C   0  0  0  0  0  0  0  0  0  0  0  0
   -4.6900   -0.1597   -0.1211 C   0  0  0  0  0  0  0  0  0  0  0  0
   -4.0435   -1.3394    0.2543 C   0  0  0  0  0  0  0  0  0  0  0  0
   -2.9160   -1.2709    1.0721 C   0  0  0  0  0  0  0  0  0  0  0  0
   -2.4417   -0.0292    1.4991 C   0  0  0  0  0  0  0  0  0  0  0  0
   -1.2641    0.0148    2.3306 N   0  0  0  0  0  0  0  0  0  0  0  0
    0.0000    0.0000    1.7713 C   0  0  0  0  0  0  0  0  0  0  0  0
    0.0000    0.0000    0.0000 S   0  0  0  0  0  0  0  0  0  0  0  0
    1.1029   -0.0000    2.4435 N   0  0  0  0  0  0  0  0  0  0  0  0
    1.1168    0.0184    3.8362 C   0  0  0  0  0  0  0  0  0  0  0  0
    2.1908   -0.0609    4.4135 O   0  0  0  0  0  0  0  0  0  0  0  0
   -0.1907    0.1477    4.5374 C   0  0  0  0  0  0  0  0  0  0  0  0
   -0.4293    0.2858    5.8853 C   0  0  0  0  0  0  0  0  0  0  0  0
    0.3345    0.3661    7.1109 C   0  0  0  0  0  0  0  0  0  0  0  0
    1.7419    0.2696    7.2278 C   0  0  0  0  0  0  0  0  0  0  0  0
    2.3872    0.3634    8.4667 C   0  0  0  0  0  0  0  0  0  0  0  0
    1.5957    0.5538    9.5887 C   0  0  0  0  0  0  0  0  0  0  0  0
    1.9747    0.6772   10.8843 O   0  0  0  0  0  0  0  0  0  0  0  0
    0.7773    0.8195   11.6550 C   0  0  0  0  0  0  0  0  0  0  0  0
   -0.3187    0.8399   10.7491 O   0  0  0  0  0  0  0  0  0  0  0  0
    0.2007    0.6498    9.4980 C   0  0  0  0  0  0  0  0  0  0  0  0
   -0.4513    0.5603    8.2931 C   0  0  0  0  0  0  0  0  0  0  0  0
   -1.4406    0.1341    3.7258 C   0  0  0  0  0  0  0  0  0  0  0  0
   -2.5684    0.2210    4.1731 O   0  0  0  0  0  0  0  0  0  0  0  0
   -3.1235    3.3271    1.1839 H   0  0  0  0  0  0  0  0  0  0  0  0
   -1.4993    2.6226    1.3847 H   0  0  0  0  0  0  0  0  0  0  0  0
   -2.6640    2.5635    2.7279 H   0  0  0  0  0  0  0  0  0  0  0  0
   -4.7266    1.9940    0.0241 H   0  0  0  0  0  0  0  0  0  0  0  0
   -5.5741   -0.2005   -0.7618 H   0  0  0  0  0  0  0  0  0  0  0  0
   -4.4147   -2.3083   -0.0856 H   0  0  0  0  0  0  0  0  0  0  0  0
   -2.3884   -2.1748    1.3815 H   0  0  0  0  0  0  0  0  0  0  0  0
    2.3077    0.0397   -0.2601 Au  0  0  0  0  0  0  0  0  0  0  0  0
   -1.5064    0.3636    6.0713 H   0  0  0  0  0  0  0  0  0  0  0  0
    2.3163    0.1145    6.3171 H   0  0  0  0  0  0  0  0  0  0  0  0
    3.4718    0.2875    8.5498 H   0  0  0  0  0  0  0  0  0  0  0  0
    0.8167    1.7659   12.2213 H   0  0  0  0  0  0  0  0  0  0  0  0
    0.6826   -0.0388   12.3445 H   0  0  0  0  0  0  0  0  0  0  0  0
   -1.5376    0.6373    8.2375 H   0  0  0  0  0  0  0  0  0  0  0  0
  1 29  1  0  0  0  0
  2  7  1  0  0  0  0
  2  1  1  0  0  0  0
  3  2  2  0  0  0  0
  4  5  2  0  0  0  0
  4  3  1  0  0  0  0
  5  6  1  0  0  0  0
  6 33  1  0  0  0  0
  6  7  2  0  0  0  0
  7  8  1  0  0  0  0
  8 25  1  0  0  0  0
  9  8  1  0  0  0  0
  9 11  2  0  0  0  0
 10  9  1  0  0  0  0
 11 12  2  0  0  0  0
 12 13  2  0  0  0  0
 12 14  1  0  0  0  0
 14 15  2  0  0  0  0
 15 35  1  0  0  0  0
 15 16  1  0  0  0  0
 16 17  2  0  0  0  0
 16 24  1  0  0  0  0
 17 18  1  0  0  0  0
 18 37  1  0  0  0  0
 18 19  2  0  0  0  0
 19 20  1  0  0  0  0
 20 21  1  0  0  0  0
 21 38  1  0  0  0  0
 21 39  1  0  0  0  0
 22 21  1  0  0  0  0
 23 19  1  0  0  0  0
 23 22  1  0  0  0  0
 24 23  2  0  0  0  0
 25 26  2  0  0  0  0
 25 14  1  0  0  0  0
 27  1  1  0  0  0  0
 28  1  1  0  0  0  0
 30  3  1  0  0  0  0
 31  4  1  0  0  0  0
 32  5  1  0  0  0  0
 34 10  1  0  0  0  0
 36 17  1  0  0  0  0
 40 24  1  0  0  0  0
M  END
