000-741-705.xyz
 OpenBabel07262113343D
COc1ccc(cc1)C(=O)N1C(=NC(=O)/C/1=C\c1ccc(cc1)C)S
 41 43  0  0  0  0  0  0  0  0999 V2000
   -3.8677   -6.5552    4.0243 C   0  0  0  0  0  0  0  0  0  0  0  0
   -4.6536   -5.4324    3.6745 O   0  0  0  0  0  0  0  0  0  0  0  0
   -4.0500   -4.2725    3.3599 C   0  0  0  0  0  0  0  0  0  0  0  0
   -4.9038   -3.1997    3.0295 C   0  0  0  0  0  0  0  0  0  0  0  0
   -4.3716   -1.9676    2.6944 C   0  0  0  0  0  0  0  0  0  0  0  0
   -2.9762   -1.7617    2.6926 C   0  0  0  0  0  0  0  0  0  0  0  0
   -2.1332   -2.8368    3.0156 C   0  0  0  0  0  0  0  0  0  0  0  0
   -2.6559   -4.0845    3.3424 C   0  0  0  0  0  0  0  0  0  0  0  0
   -2.4578   -0.4430    2.2852 C   0  0  0  0  0  0  0  0  0  0  0  0
   -3.1392    0.3764    1.6928 O   0  0  0  0  0  0  0  0  0  0  0  0
   -1.0958   -0.1632    2.6122 N   0  0  0  0  0  0  0  0  0  0  0  0
   -0.0000    0.0000    1.7507 C   0  0  0  0  0  0  0  0  0  0  0  0
    0.0000    0.0000    0.0000 S   0  0  0  0  0  0  0  0  0  0  0  0
    1.1484    0.0000    2.3615 N   0  0  0  0  0  0  0  0  0  0  0  0
    0.9224   -0.1814    3.7294 C   0  0  0  0  0  0  0  0  0  0  0  0
    1.7925   -0.2405    4.5752 O   0  0  0  0  0  0  0  0  0  0  0  0
   -0.5700   -0.2506    3.9329 C   0  0  0  0  0  0  0  0  0  0  0  0
   -1.3709   -0.2837    5.0303 C   0  0  0  0  0  0  0  0  0  0  0  0
   -1.1080   -0.4002    6.4563 C   0  0  0  0  0  0  0  0  0  0  0  0
   -2.2345   -0.4112    7.3089 C   0  0  0  0  0  0  0  0  0  0  0  0
   -2.0992   -0.5252    8.6890 C   0  0  0  0  0  0  0  0  0  0  0  0
   -0.8321   -0.6336    9.2808 C   0  0  0  0  0  0  0  0  0  0  0  0
   -0.6677   -0.7433   10.7735 C   0  0  0  0  0  0  0  0  0  0  0  0
    0.2900   -0.6261    8.4339 C   0  0  0  0  0  0  0  0  0  0  0  0
    0.1683   -0.5129    7.0534 C   0  0  0  0  0  0  0  0  0  0  0  0
   -3.2073   -6.8612    3.1947 H   0  0  0  0  0  0  0  0  0  0  0  0
   -3.2536   -6.3560    4.9193 H   0  0  0  0  0  0  0  0  0  0  0  0
   -4.5704   -7.3689    4.2433 H   0  0  0  0  0  0  0  0  0  0  0  0
   -5.9809   -3.3736    3.0460 H   0  0  0  0  0  0  0  0  0  0  0  0
   -5.0227   -1.1333    2.4287 H   0  0  0  0  0  0  0  0  0  0  0  0
   -1.0511   -2.7044    3.0031 H   0  0  0  0  0  0  0  0  0  0  0  0
   -1.9757   -4.9007    3.5808 H   0  0  0  0  0  0  0  0  0  0  0  0
   -2.0008    0.9940   -0.5976 Au  0  0  0  0  0  0  0  0  0  0  0  0
   -2.4418   -0.2294    4.8123 H   0  0  0  0  0  0  0  0  0  0  0  0
   -3.2337   -0.3306    6.8724 H   0  0  0  0  0  0  0  0  0  0  0  0
   -2.9916   -0.5306    9.3205 H   0  0  0  0  0  0  0  0  0  0  0  0
   -0.1697    0.1523   11.1825 H   0  0  0  0  0  0  0  0  0  0  0  0
   -0.0401   -1.6083   11.0434 H   0  0  0  0  0  0  0  0  0  0  0  0
   -1.6364   -0.8509   11.2827 H   0  0  0  0  0  0  0  0  0  0  0  0
    1.2891   -0.7107    8.8708 H   0  0  0  0  0  0  0  0  0  0  0  0
    1.0523   -0.5033    6.4174 H   0  0  0  0  0  0  0  0  0  0  0  0
  1 28  1  0  0  0  0
  1 27  1  0  0  0  0
  2  1  1  0  0  0  0
  3  2  1  0  0  0  0
  4 29  1  0  0  0  0
  4  3  2  0  0  0  0
  5  4  1  0  0  0  0
  6  5  2  0  0  0  0
  6  7  1  0  0  0  0
  7  8  2  0  0  0  0
  8  3  1  0  0  0  0
  8 32  1  0  0  0  0
  9 11  1  0  0  0  0
  9  6  1  0  0  0  0
 10  9  2  0  0  0  0
 11 17  1  0  0  0  0
 12 14  2  0  0  0  0
 12 11  1  0  0  0  0
 13 12  1  0  0  0  0
 14 15  2  0  0  0  0
 15 17  1  0  0  0  0
 15 16  2  0  0  0  0
 17 18  2  0  0  0  0
 18 19  1  0  0  0  0
 19 25  2  0  0  0  0
 19 20  1  0  0  0  0
 20 21  2  0  0  0  0
 21 22  1  0  0  0  0
 21 36  1  0  0  0  0
 22 23  1  0  0  0  0
 23 38  1  0  0  0  0
 23 37  1  0  0  0  0
 23 39  1  0  0  0  0
 24 40  1  0  0  0  0
 24 22  2  0  0  0  0
 25 24  1  0  0  0  0
 26  1  1  0  0  0  0
 30  5  1  0  0  0  0
 31  7  1  0  0  0  0
 33 13  1  0  0  0  0
 34 18  1  0  0  0  0
 35 20  1  0  0  0  0
 41 25  1  0  0  0  0
M  END
