000-155-929.xyz
 OpenBabel07262113323D
Fc1ccc(cc1)c1ccc(cc1)S
 23 24  0  0  0  0  0  0  0  0999 V2000
    0.0283    0.4831   10.2213 F   0  0  0  0  0  0  0  0  0  0  0  0
    0.0238    0.4076    8.8836 C   0  0  0  0  0  0  0  0  0  0  0  0
    1.0408    1.0285    8.1624 C   0  0  0  0  0  0  0  0  0  0  0  0
    1.0293    0.9449    6.7708 C   0  0  0  0  0  0  0  0  0  0  0  0
    0.0143    0.2496    6.0869 C   0  0  0  0  0  0  0  0  0  0  0  0
   -0.9958   -0.3637    6.8515 C   0  0  0  0  0  0  0  0  0  0  0  0
   -0.9978   -0.2902    8.2438 C   0  0  0  0  0  0  0  0  0  0  0  0
    0.0094    0.1659    4.6077 C   0  0  0  0  0  0  0  0  0  0  0  0
   -1.1987    0.1689    3.8839 C   0  0  0  0  0  0  0  0  0  0  0  0
   -1.2068    0.0879    2.4945 C   0  0  0  0  0  0  0  0  0  0  0  0
   -0.0000    0.0000    1.7793 C   0  0  0  0  0  0  0  0  0  0  0  0
    0.0000    0.0000    0.0000 S   0  0  0  0  0  0  0  0  0  0  0  0
    1.2115   -0.0000    2.4916 C   0  0  0  0  0  0  0  0  0  0  0  0
    1.2126    0.0812    3.8812 C   0  0  0  0  0  0  0  0  0  0  0  0
    1.8196    1.5756    8.6963 H   0  0  0  0  0  0  0  0  0  0  0  0
    1.8115    1.4525    6.2033 H   0  0  0  0  0  0  0  0  0  0  0  0
   -1.7819   -0.9313    6.3501 H   0  0  0  0  0  0  0  0  0  0  0  0
   -1.7730   -0.7730    8.8412 H   0  0  0  0  0  0  0  0  0  0  0  0
   -2.1462    0.2636    4.4180 H   0  0  0  0  0  0  0  0  0  0  0  0
   -2.1501    0.1009    1.9456 H   0  0  0  0  0  0  0  0  0  0  0  0
   -0.1206   -2.2407   -0.5264 Au  0  0  0  0  0  0  0  0  0  0  0  0
    2.1514   -0.0758    1.9417 H   0  0  0  0  0  0  0  0  0  0  0  0
    2.1640    0.0514    4.4161 H   0  0  0  0  0  0  0  0  0  0  0  0
  2  1  1  0  0  0  0
  3 15  1  0  0  0  0
  3  2  2  0  0  0  0
  4  3  1  0  0  0  0
  5  4  2  0  0  0  0
  5  6  1  0  0  0  0
  6  7  2  0  0  0  0
  7 18  1  0  0  0  0
  7  2  1  0  0  0  0
  8  5  1  0  0  0  0
  9 19  1  0  0  0  0
  9  8  1  0  0  0  0
 10  9  2  0  0  0  0
 11 13  2  0  0  0  0
 11 10  1  0  0  0  0
 12 11  1  0  0  0  0
 13 14  1  0  0  0  0
 14 23  1  0  0  0  0
 14  8  2  0  0  0  0
 16  4  1  0  0  0  0
 17  6  1  0  0  0  0
 20 10  1  0  0  0  0
 21 12  1  0  0  0  0
 22 13  1  0  0  0  0
M  END
