000-724-868.xyz
 OpenBabel07262113333D
O=C(CN1c2ccccc2/C(=C\2/SC(=NC2=O)S)/C1=O)Nc1cccc(c1)C
 43 46  0  0  0  0  0  0  0  0999 V2000
    8.9119    3.1906   12.0170 C   0  0  0  0  0  0  0  0  0  0  0  0
    7.7558    3.4547   11.0856 C   0  0  0  0  0  0  0  0  0  0  0  0
    7.2763    4.7607   10.8933 C   0  0  0  0  0  0  0  0  0  0  0  0
    6.2072    4.9969   10.0305 C   0  0  0  0  0  0  0  0  0  0  0  0
    5.5853    3.9550    9.3377 C   0  0  0  0  0  0  0  0  0  0  0  0
    6.0572    2.6475    9.5223 C   0  0  0  0  0  0  0  0  0  0  0  0
    5.4961    1.5289    8.8720 N   0  0  0  0  0  0  0  0  0  0  0  0
    4.4775    1.4885    7.9571 C   0  0  0  0  0  0  0  0  0  0  0  0
    3.8348    2.4424    7.5717 O   0  0  0  0  0  0  0  0  0  0  0  0
    4.2124    0.0734    7.4076 C   0  0  0  0  0  0  0  0  0  0  0  0
    2.8861   -0.0399    6.8837 N   0  0  0  0  0  0  0  0  0  0  0  0
    2.6061   -0.0096    5.5315 C   0  0  0  0  0  0  0  0  0  0  0  0
    3.4283   -0.0129    4.6337 O   0  0  0  0  0  0  0  0  0  0  0  0
    1.1036    0.0044    5.3972 C   0  0  0  0  0  0  0  0  0  0  0  0
    0.5582    0.0021    4.1501 C   0  0  0  0  0  0  0  0  0  0  0  0
    1.5324    0.0000    2.6768 S   0  0  0  0  0  0  0  0  0  0  0  0
   -0.0000    0.0000    1.7433 C   0  0  0  0  0  0  0  0  0  0  0  0
    0.0000    0.0000    0.0000 S   0  0  0  0  0  0  0  0  0  0  0  0
   -1.1102   -0.0010    2.3912 N   0  0  0  0  0  0  0  0  0  0  0  0
   -0.9169    0.0000    3.7773 C   0  0  0  0  0  0  0  0  0  0  0  0
   -1.8186   -0.0030    4.5837 O   0  0  0  0  0  0  0  0  0  0  0  0
    0.5792    0.0215    6.7620 C   0  0  0  0  0  0  0  0  0  0  0  0
   -0.7054    0.0550    7.3180 C   0  0  0  0  0  0  0  0  0  0  0  0
   -0.8439    0.0864    8.7112 C   0  0  0  0  0  0  0  0  0  0  0  0
    0.2777    0.0883    9.5457 C   0  0  0  0  0  0  0  0  0  0  0  0
    1.5751    0.0527    9.0127 C   0  0  0  0  0  0  0  0  0  0  0  0
    1.7041    0.0146    7.6317 C   0  0  0  0  0  0  0  0  0  0  0  0
    7.1356    2.4120   10.3931 C   0  0  0  0  0  0  0  0  0  0  0  0
    9.1663    2.1215   12.0586 H   0  0  0  0  0  0  0  0  0  0  0  0
    9.8124    3.7404   11.6975 H   0  0  0  0  0  0  0  0  0  0  0  0
    8.6795    3.5231   13.0421 H   0  0  0  0  0  0  0  0  0  0  0  0
    7.7461    5.5926   11.4245 H   0  0  0  0  0  0  0  0  0  0  0  0
    5.8413    6.0167    9.8881 H   0  0  0  0  0  0  0  0  0  0  0  0
    4.7509    4.1366    8.6657 H   0  0  0  0  0  0  0  0  0  0  0  0
    5.9304    0.6420    9.1004 H   0  0  0  0  0  0  0  0  0  0  0  0
    4.3954   -0.6978    8.1757 H   0  0  0  0  0  0  0  0  0  0  0  0
    4.9037   -0.1066    6.5685 H   0  0  0  0  0  0  0  0  0  0  0  0
    2.2581    0.0321   -0.4868 Au  0  0  0  0  0  0  0  0  0  0  0  0
   -1.5715    0.0591    6.6613 H   0  0  0  0  0  0  0  0  0  0  0  0
   -1.8439    0.1153    9.1484 H   0  0  0  0  0  0  0  0  0  0  0  0
    0.1481    0.1220   10.6300 H   0  0  0  0  0  0  0  0  0  0  0  0
    2.4494    0.0671    9.6654 H   0  0  0  0  0  0  0  0  0  0  0  0
    7.4984    1.3883   10.5316 H   0  0  0  0  0  0  0  0  0  0  0  0
  1 29  1  0  0  0  0
  1 31  1  0  0  0  0
  2  1  1  0  0  0  0
  3  2  1  0  0  0  0
  3 32  1  0  0  0  0
  4  3  2  0  0  0  0
  5  6  2  0  0  0  0
  5  4  1  0  0  0  0
  6 28  1  0  0  0  0
  7 35  1  0  0  0  0
  7  6  1  0  0  0  0
  8  7  1  0  0  0  0
  9  8  2  0  0  0  0
 10  8  1  0  0  0  0
 10 36  1  0  0  0  0
 11 10  1  0  0  0  0
 11 27  1  0  0  0  0
 12 11  1  0  0  0  0
 13 12  2  0  0  0  0
 14 12  1  0  0  0  0
 14 22  1  0  0  0  0
 15 14  2  0  0  0  0
 16 15  1  0  0  0  0
 17 19  2  0  0  0  0
 17 16  1  0  0  0  0
 18 17  1  0  0  0  0
 19 20  2  0  0  0  0
 20 15  1  0  0  0  0
 20 21  2  0  0  0  0
 22 23  2  0  0  0  0
 22 27  1  0  0  0  0
 23 24  1  0  0  0  0
 24 40  1  0  0  0  0
 24 25  2  0  0  0  0
 25 41  1  0  0  0  0
 26 25  1  0  0  0  0
 26 42  1  0  0  0  0
 27 26  2  0  0  0  0
 28 43  1  0  0  0  0
 28  2  2  0  0  0  0
 30  1  1  0  0  0  0
 33  4  1  0  0  0  0
 34  5  1  0  0  0  0
 37 10  1  0  0  0  0
 38 18  1  0  0  0  0
 39 23  1  0  0  0  0
M  END
