000-756-827.xyz
 OpenBabel07262113353D
Fc1ccc(cc1)N1C(=NC(=O)/C(=C\c2c([nH]c3c2cccc3)c2ccccc2)/C1=O)S
 48 52  0  0  0  0  0  0  0  0999 V2000
    6.1569    0.8201    0.2640 F   0  0  0  0  0  0  0  0  0  0  0  0
    4.9594    0.6267    0.8288 C   0  0  0  0  0  0  0  0  0  0  0  0
    4.0495    1.6798    0.8723 C   0  0  0  0  0  0  0  0  0  0  0  0
    2.8017    1.4685    1.4605 C   0  0  0  0  0  0  0  0  0  0  0  0
    2.4714    0.2139    1.9780 C   0  0  0  0  0  0  0  0  0  0  0  0
    3.4078   -0.8276    1.9525 C   0  0  0  0  0  0  0  0  0  0  0  0
    4.6605   -0.6254    1.3691 C   0  0  0  0  0  0  0  0  0  0  0  0
    1.1721   -0.0000    2.5375 N   0  0  0  0  0  0  0  0  0  0  0  0
   -0.0000    0.0000    1.7835 C   0  0  0  0  0  0  0  0  0  0  0  0
    0.0000    0.0000    0.0000 S   0  0  0  0  0  0  0  0  0  0  0  0
   -1.1840    0.0367    2.2749 N   0  0  0  0  0  0  0  0  0  0  0  0
   -1.4257    0.1173    3.6499 C   0  0  0  0  0  0  0  0  0  0  0  0
   -2.5644    0.2384    4.0639 O   0  0  0  0  0  0  0  0  0  0  0  0
   -0.2480   -0.0553    4.5365 C   0  0  0  0  0  0  0  0  0  0  0  0
   -0.3165   -0.2905    5.8917 C   0  0  0  0  0  0  0  0  0  0  0  0
   -1.3858   -0.1787    6.8282 C   0  0  0  0  0  0  0  0  0  0  0  0
   -2.4538    0.7393    6.8898 C   0  0  0  0  0  0  0  0  0  0  0  0
   -3.2356    0.4212    7.9673 N   0  0  0  0  0  0  0  0  0  0  0  0
   -2.7130   -0.6603    8.6604 C   0  0  0  0  0  0  0  0  0  0  0  0
   -3.1733   -1.3095    9.8083 C   0  0  0  0  0  0  0  0  0  0  0  0
   -2.4166   -2.3798   10.2844 C   0  0  0  0  0  0  0  0  0  0  0  0
   -1.2422   -2.7918    9.6234 C   0  0  0  0  0  0  0  0  0  0  0  0
   -0.7974   -2.1459    8.4713 C   0  0  0  0  0  0  0  0  0  0  0  0
   -1.5302   -1.0532    7.9832 C   0  0  0  0  0  0  0  0  0  0  0  0
   -2.7159    1.9643    6.1322 C   0  0  0  0  0  0  0  0  0  0  0  0
   -4.0309    2.3340    5.8030 C   0  0  0  0  0  0  0  0  0  0  0  0
   -4.2788    3.5124    5.1008 C   0  0  0  0  0  0  0  0  0  0  0  0
   -3.2179    4.3376    4.7182 C   0  0  0  0  0  0  0  0  0  0  0  0
   -1.9066    3.9793    5.0474 C   0  0  0  0  0  0  0  0  0  0  0  0
   -1.6555    2.8033    5.7515 C   0  0  0  0  0  0  0  0  0  0  0  0
    1.1035   -0.1387    3.9539 C   0  0  0  0  0  0  0  0  0  0  0  0
    2.1316   -0.2702    4.5916 O   0  0  0  0  0  0  0  0  0  0  0  0
    4.3253    2.6461    0.4477 H   0  0  0  0  0  0  0  0  0  0  0  0
    2.0649    2.2721    1.4927 H   0  0  0  0  0  0  0  0  0  0  0  0
    3.1505   -1.7909    2.3926 H   0  0  0  0  0  0  0  0  0  0  0  0
    5.4110   -1.4168    1.3374 H   0  0  0  0  0  0  0  0  0  0  0  0
    1.9130   -1.0884   -0.7084 Au  0  0  0  0  0  0  0  0  0  0  0  0
    0.6223   -0.6679    6.3158 H   0  0  0  0  0  0  0  0  0  0  0  0
   -3.9976    1.0048    8.2895 H   0  0  0  0  0  0  0  0  0  0  0  0
   -4.0890   -0.9937   10.3128 H   0  0  0  0  0  0  0  0  0  0  0  0
   -2.7430   -2.9104   11.1815 H   0  0  0  0  0  0  0  0  0  0  0  0
   -0.6750   -3.6367   10.0204 H   0  0  0  0  0  0  0  0  0  0  0  0
    0.1052   -2.4851    7.9583 H   0  0  0  0  0  0  0  0  0  0  0  0
   -4.8583    1.6665    6.0542 H   0  0  0  0  0  0  0  0  0  0  0  0
   -5.3041    3.7793    4.8347 H   0  0  0  0  0  0  0  0  0  0  0  0
   -3.4121    5.2579    4.1626 H   0  0  0  0  0  0  0  0  0  0  0  0
   -1.0740    4.6249    4.7582 H   0  0  0  0  0  0  0  0  0  0  0  0
   -0.6337    2.5297    6.0171 H   0  0  0  0  0  0  0  0  0  0  0  0
  1  2  1  0  0  0  0
  2  3  2  0  0  0  0
  2  7  1  0  0  0  0
  3  4  1  0  0  0  0
  4 34  1  0  0  0  0
  4  5  2  0  0  0  0
  5  8  1  0  0  0  0
  6  5  1  0  0  0  0
  6 35  1  0  0  0  0
  7  6  2  0  0  0  0
  8 31  1  0  0  0  0
  9 11  2  0  0  0  0
  9  8  1  0  0  0  0
 10  9  1  0  0  0  0
 11 12  2  0  0  0  0
 12 13  2  0  0  0  0
 12 14  1  0  0  0  0
 14 15  2  0  0  0  0
 15 38  1  0  0  0  0
 15 16  1  0  0  0  0
 16 17  2  0  0  0  0
 16 24  1  0  0  0  0
 17 18  1  0  0  0  0
 18 39  1  0  0  0  0
 18 19  1  0  0  0  0
 19 20  2  0  0  0  0
 20 21  1  0  0  0  0
 20 40  1  0  0  0  0
 21 41  1  0  0  0  0
 22 42  1  0  0  0  0
 22 21  2  0  0  0  0
 23 22  1  0  0  0  0
 24 23  2  0  0  0  0
 24 19  1  0  0  0  0
 25 17  1  0  0  0  0
 26 44  1  0  0  0  0
 26 25  1  0  0  0  0
 27 26  2  0  0  0  0
 28 29  2  0  0  0  0
 28 27  1  0  0  0  0
 29 30  1  0  0  0  0
 30 48  1  0  0  0  0
 30 25  2  0  0  0  0
 31 14  1  0  0  0  0
 31 32  2  0  0  0  0
 33  3  1  0  0  0  0
 36  7  1  0  0  0  0
 37 10  1  0  0  0  0
 43 23  1  0  0  0  0
 45 27  1  0  0  0  0
 46 28  1  0  0  0  0
 47 29  1  0  0  0  0
M  END
