000-711-388.xyz
 OpenBabel07262113333D
COc1ccc(cc1)S(=O)(=O)N1C(=O)/C(=C/2\SC(=NC2=O)S)/c2c1cccc2
 40 43  0  0  0  0  0  0  0  0999 V2000
    7.1248    5.5039    3.4599 C   0  0  0  0  0  0  0  0  0  0  0  0
    6.5853    5.3392    4.7558 O   0  0  0  0  0  0  0  0  0  0  0  0
    6.2748    4.1032    5.1915 C   0  0  0  0  0  0  0  0  0  0  0  0
    5.7398    4.0270    6.4939 C   0  0  0  0  0  0  0  0  0  0  0  0
    5.3875    2.8002    7.0334 C   0  0  0  0  0  0  0  0  0  0  0  0
    5.5669    1.6406    6.2647 C   0  0  0  0  0  0  0  0  0  0  0  0
    6.0986    1.6958    4.9765 C   0  0  0  0  0  0  0  0  0  0  0  0
    6.4560    2.9309    4.4370 C   0  0  0  0  0  0  0  0  0  0  0  0
    5.1046    0.0786    6.9519 S   0  0  0  0  0  0  0  0  0  0  0  0
    5.1514    0.1628    8.4086 O   0  0  0  0  0  0  0  0  0  0  0  0
    5.7562   -0.9960    6.2229 O   0  0  0  0  0  0  0  0  0  0  0  0
    3.4046   -0.0088    6.5608 N   0  0  0  0  0  0  0  0  0  0  0  0
    2.9711   -0.0069    5.2330 C   0  0  0  0  0  0  0  0  0  0  0  0
    3.6806    0.0214    4.2483 O   0  0  0  0  0  0  0  0  0  0  0  0
    1.4684   -0.0070    5.2626 C   0  0  0  0  0  0  0  0  0  0  0  0
    0.7944   -0.0030    4.0760 C   0  0  0  0  0  0  0  0  0  0  0  0
    1.6175   -0.0000    2.5113 S   0  0  0  0  0  0  0  0  0  0  0  0
   -0.0000   -0.0000    1.7335 C   0  0  0  0  0  0  0  0  0  0  0  0
    0.0000    0.0000    0.0000 S   0  0  0  0  0  0  0  0  0  0  0  0
   -1.0397    0.0009    2.4984 N   0  0  0  0  0  0  0  0  0  0  0  0
   -0.7080    0.0011    3.8558 C   0  0  0  0  0  0  0  0  0  0  0  0
   -1.5313    0.0045    4.7443 O   0  0  0  0  0  0  0  0  0  0  0  0
    1.0914   -0.0015    6.6730 C   0  0  0  0  0  0  0  0  0  0  0  0
   -0.1440   -0.0022    7.3358 C   0  0  0  0  0  0  0  0  0  0  0  0
   -0.1688   -0.0007    8.7328 C   0  0  0  0  0  0  0  0  0  0  0  0
    1.0210   -0.0052    9.4661 C   0  0  0  0  0  0  0  0  0  0  0  0
    2.2711   -0.0090    8.8312 C   0  0  0  0  0  0  0  0  0  0  0  0
    2.2903   -0.0011    7.4418 C   0  0  0  0  0  0  0  0  0  0  0  0
    7.2917    6.5804    3.3280 H   0  0  0  0  0  0  0  0  0  0  0  0
    8.0865    4.9732    3.3503 H   0  0  0  0  0  0  0  0  0  0  0  0
    6.4272    5.1483    2.6819 H   0  0  0  0  0  0  0  0  0  0  0  0
    5.6198    4.9525    7.0589 H   0  0  0  0  0  0  0  0  0  0  0  0
    4.9861    2.7265    8.0451 H   0  0  0  0  0  0  0  0  0  0  0  0
    6.2176    0.7772    4.4034 H   0  0  0  0  0  0  0  0  0  0  0  0
    6.8702    2.9685    3.4305 H   0  0  0  0  0  0  0  0  0  0  0  0
   -2.2994   -0.0049   -0.3147 Au  0  0  0  0  0  0  0  0  0  0  0  0
   -1.0592   -0.0038    6.7500 H   0  0  0  0  0  0  0  0  0  0  0  0
   -1.1292   -0.0004    9.2523 H   0  0  0  0  0  0  0  0  0  0  0  0
    0.9864   -0.0105   10.5582 H   0  0  0  0  0  0  0  0  0  0  0  0
    3.1979   -0.0237    9.3980 H   0  0  0  0  0  0  0  0  0  0  0  0
  1  2  1  0  0  0  0
  2  3  1  0  0  0  0
  3  4  2  0  0  0  0
  4  5  1  0  0  0  0
  4 32  1  0  0  0  0
  5 33  1  0  0  0  0
  6  9  1  0  0  0  0
  6  5  2  0  0  0  0
  7  6  1  0  0  0  0
  8  7  2  0  0  0  0
  8  3  1  0  0  0  0
  9 10  2  0  0  0  0
 11  9  2  0  0  0  0
 12  9  1  0  0  0  0
 12 28  1  0  0  0  0
 13 15  1  0  0  0  0
 13 12  1  0  0  0  0
 14 13  2  0  0  0  0
 15 23  1  0  0  0  0
 16 15  2  0  0  0  0
 17 16  1  0  0  0  0
 18 20  2  0  0  0  0
 18 17  1  0  0  0  0
 19 18  1  0  0  0  0
 20 21  2  0  0  0  0
 21 16  1  0  0  0  0
 21 22  2  0  0  0  0
 23 24  2  0  0  0  0
 23 28  1  0  0  0  0
 24 25  1  0  0  0  0
 25 38  1  0  0  0  0
 25 26  2  0  0  0  0
 26 39  1  0  0  0  0
 27 40  1  0  0  0  0
 27 26  1  0  0  0  0
 28 27  2  0  0  0  0
 29  1  1  0  0  0  0
 30  1  1  0  0  0  0
 31  1  1  0  0  0  0
 34  7  1  0  0  0  0
 35  8  1  0  0  0  0
 36 19  1  0  0  0  0
 37 24  1  0  0  0  0
M  END
