000-841-147.xyz
 OpenBabel07262113373D
Clc1ccc(cc1)N1C(=NC(=O)/C(=C\c2cc(n(c2C)c2ccc(c(c2)Cl)Cl)C)/C1=O)S
 48 51  0  0  1  0  0  0  0  0999 V2000
   -3.3359    1.1902    9.8733 C   0  0  0  0  0  0  0  0  0  0  0  0
   -2.6561    0.6081    8.6800 C   0  0  0  0  0  0  0  0  0  0  0  0
   -1.5543    1.0281    7.9853 C   0  0  0  0  0  0  0  0  0  0  0  0
   -1.3935    0.1815    6.8265 C   0  0  0  0  0  0  0  0  0  0  0  0
   -0.3240    0.3109    5.8922 C   0  0  0  0  0  0  0  0  0  0  0  0
   -0.2543    0.0539    4.5393 C   0  0  1  0  0  0  0  0  0  0  0  0
   -1.4305   -0.1118    3.6477 C   0  0  0  0  0  0  0  0  0  0  0  0
   -2.5743   -0.2233    4.0547 O   0  0  0  0  0  0  0  0  0  0  0  0
   -1.1847   -0.0334    2.2740 N   0  0  0  0  0  0  0  0  0  0  0  0
   -0.0000    0.0000    1.7830 C   0  0  0  0  0  0  0  0  0  0  0  0
    0.0000    0.0000    0.0000 S   0  0  0  0  0  0  0  0  0  0  0  0
    1.1696    0.0000    2.5397 N   0  0  0  0  0  0  0  0  0  0  0  0
    1.0980    0.1461    3.9561 C   0  0  0  0  0  0  0  0  0  0  0  0
    2.1245    0.2906    4.5922 O   0  0  0  0  0  0  0  0  0  0  0  0
    2.4706   -0.2068    1.9829 C   0  0  0  0  0  0  0  0  0  0  0  0
    3.4003    0.8402    1.9548 C   0  0  0  0  0  0  0  0  0  0  0  0
    4.6499    0.6484    1.3626 C   0  0  0  0  0  0  0  0  0  0  0  0
    4.9636   -0.6000    0.8102 C   0  0  0  0  0  0  0  0  0  0  0  0
    6.5155   -0.8347    0.0495 Cl  0  0  0  0  0  0  0  0  0  0  0  0
    4.0541   -1.6586    0.8673 C   0  0  0  0  0  0  0  0  0  0  0  0
    2.8088   -1.4580    1.4640 C   0  0  0  0  0  0  0  0  0  0  0  0
   -2.4040   -0.7963    6.8931 C   0  0  0  0  0  0  0  0  0  0  0  0
   -2.5886   -2.0507    6.1161 C   0  0  0  0  0  0  0  0  0  0  0  0
   -3.1547   -0.5224    8.0105 N   0  0  0  0  0  0  0  0  0  0  0  0
   -4.2935   -1.2692    8.4162 C   0  0  0  0  0  0  0  0  0  0  0  0
   -4.3004   -1.9510    9.6381 C   0  0  0  0  0  0  0  0  0  0  0  0
   -5.4277   -2.6745   10.0201 C   0  0  0  0  0  0  0  0  0  0  0  0
   -6.5478   -2.7374    9.1847 C   0  0  0  0  0  0  0  0  0  0  0  0
   -7.9325   -3.6555    9.6851 Cl  0  0  0  0  0  0  0  0  0  0  0  0
   -6.5345   -2.0605    7.9523 C   0  0  0  0  0  0  0  0  0  0  0  0
   -7.9032   -2.1154    6.8877 Cl  0  0  0  0  0  0  0  0  0  0  0  0
   -5.4095   -1.3228    7.5767 C   0  0  0  0  0  0  0  0  0  0  0  0
   -3.2969    0.5279   10.7537 H   0  0  0  0  0  0  0  0  0  0  0  0
   -4.4003    1.3984    9.6738 H   0  0  0  0  0  0  0  0  0  0  0  0
   -2.8485    2.1365   10.1443 H   0  0  0  0  0  0  0  0  0  0  0  0
   -0.9474    1.8987    8.2255 H   0  0  0  0  0  0  0  0  0  0  0  0
    0.6074    0.7119    6.3101 H   0  0  0  0  0  0  0  0  0  0  0  0
    1.9267    1.0619   -0.7146 Au  0  0  0  0  0  0  0  0  0  0  0  0
    3.1394    1.8020    2.3964 H   0  0  0  0  0  0  0  0  0  0  0  0
    5.3829    1.4553    1.3315 H   0  0  0  0  0  0  0  0  0  0  0  0
    4.3201   -2.6270    0.4427 H   0  0  0  0  0  0  0  0  0  0  0  0
    2.0794   -2.2682    1.4988 H   0  0  0  0  0  0  0  0  0  0  0  0
   -2.8745   -2.8834    6.7772 H   0  0  0  0  0  0  0  0  0  0  0  0
   -1.6524   -2.3072    5.6032 H   0  0  0  0  0  0  0  0  0  0  0  0
   -3.3502   -1.9331    5.3313 H   0  0  0  0  0  0  0  0  0  0  0  0
   -3.4184   -1.9247   10.2789 H   0  0  0  0  0  0  0  0  0  0  0  0
   -5.4491   -3.2122   10.9688 H   0  0  0  0  0  0  0  0  0  0  0  0
   -5.4060   -0.7871    6.6272 H   0  0  0  0  0  0  0  0  0  0  0  0
  1 35  1  0  0  0  0
  1 33  1  0  0  0  0
  2  1  1  0  0  0  0
  3 36  1  0  0  0  0
  3  2  2  0  0  0  0
  4 22  2  0  0  0  0
  4  3  1  0  0  0  0
  5 37  1  0  0  0  0
  5  4  1  0  0  0  0
  6  5  1  6  0  0  0
  7  8  2  0  0  0  0
  7  6  1  0  0  0  0
  9  7  2  0  0  0  0
 10  9  2  0  0  0  0
 10 12  1  0  0  0  0
 11 10  1  0  0  0  0
 12 13  1  0  0  0  0
 13  6  1  0  0  0  0
 13 14  2  0  0  0  0
 15 12  1  0  0  0  0
 16 15  1  0  0  0  0
 16 39  1  0  0  0  0
 17 16  2  0  0  0  0
 18 20  2  0  0  0  0
 18 17  1  0  0  0  0
 19 18  1  0  0  0  0
 20 21  1  0  0  0  0
 21 42  1  0  0  0  0
 21 15  2  0  0  0  0
 22 24  1  0  0  0  0
 23 43  1  0  0  0  0
 23 22  1  0  0  0  0
 24 25  1  0  0  0  0
 24  2  1  0  0  0  0
 25 26  2  0  0  0  0
 26 27  1  0  0  0  0
 26 46  1  0  0  0  0
 27 47  1  0  0  0  0
 28 29  1  0  0  0  0
 28 27  2  0  0  0  0
 30 28  1  0  0  0  0
 31 30  1  0  0  0  0
 32 30  2  0  0  0  0
 32 25  1  0  0  0  0
 34  1  1  0  0  0  0
 38 11  1  0  0  0  0
 40 17  1  0  0  0  0
 41 20  1  0  0  0  0
 44 23  1  0  0  0  0
 45 23  1  0  0  0  0
 48 32  1  0  0  0  0
M  RAD  2   5   2   6   2
M  END
