000-755-906.xyz
 OpenBabel07262113353D
Fc1ccc(cc1)N/C=C/1\C(=O)N=C(N(C1=O)c1ccc(c(c1)C)C)S
 42 44  0  0  1  0  0  0  0  0999 V2000
   -6.3111   -0.9960    0.1666 C   0  0  0  0  0  0  0  0  0  0  0  0
   -4.9725   -0.7368    0.8053 C   0  0  0  0  0  0  0  0  0  0  0  0
   -4.0357   -1.7678    0.9427 C   0  0  0  0  0  0  0  0  0  0  0  0
   -2.7898   -1.5514    1.5352 C   0  0  0  0  0  0  0  0  0  0  0  0
   -2.4634   -0.2765    1.9877 C   0  0  0  0  0  0  0  0  0  0  0  0
   -3.3974    0.7632    1.8905 C   0  0  0  0  0  0  0  0  0  0  0  0
   -4.6518    0.5527    1.3004 C   0  0  0  0  0  0  0  0  0  0  0  0
   -5.6519    1.6765    1.2198 C   0  0  0  0  0  0  0  0  0  0  0  0
   -1.1653   -0.0252    2.5397 N   0  0  0  0  0  0  0  0  0  0  0  0
   -0.0000    0.0000    1.7800 C   0  0  0  0  0  0  0  0  0  0  0  0
    0.0000    0.0000    0.0000 S   0  0  0  0  0  0  0  0  0  0  0  0
    1.1948    0.0000    2.2684 N   0  0  0  0  0  0  0  0  0  0  0  0
    1.4159   -0.0095    3.6329 C   0  0  0  0  0  0  0  0  0  0  0  0
    2.5626   -0.0958    4.0896 O   0  0  0  0  0  0  0  0  0  0  0  0
    0.2457    0.1350    4.5022 C   0  0  2  0  0  0  0  0  0  0  0  0
    0.3803    0.2334    5.8804 C   0  0  0  0  0  0  0  0  0  0  0  0
    1.5618    0.1995    6.4926 N   0  0  0  0  0  0  0  0  0  0  0  0
    1.8320    0.2964    7.8644 C   0  0  0  0  0  0  0  0  0  0  0  0
    0.8295    0.4945    8.8284 C   0  0  0  0  0  0  0  0  0  0  0  0
    1.1624    0.5801   10.1791 C   0  0  0  0  0  0  0  0  0  0  0  0
    2.4964    0.4700   10.5658 C   0  0  0  0  0  0  0  0  0  0  0  0
    2.8121    0.5538   11.8652 F   0  0  0  0  0  0  0  0  0  0  0  0
    3.5066    0.2759    9.6270 C   0  0  0  0  0  0  0  0  0  0  0  0
    3.1707    0.1894    8.2777 C   0  0  0  0  0  0  0  0  0  0  0  0
   -1.1032    0.1285    3.9603 C   0  0  0  0  0  0  0  0  0  0  0  0
   -2.1325    0.2129    4.6071 O   0  0  0  0  0  0  0  0  0  0  0  0
   -6.3982   -2.0381   -0.1707 H   0  0  0  0  0  0  0  0  0  0  0  0
   -6.4785   -0.3422   -0.7054 H   0  0  0  0  0  0  0  0  0  0  0  0
   -7.1370   -0.7970    0.8701 H   0  0  0  0  0  0  0  0  0  0  0  0
   -4.2849   -2.7653    0.5729 H   0  0  0  0  0  0  0  0  0  0  0  0
   -2.0600   -2.3579    1.6164 H   0  0  0  0  0  0  0  0  0  0  0  0
   -3.1391    1.7440    2.2926 H   0  0  0  0  0  0  0  0  0  0  0  0
   -6.5582    1.4434    1.8036 H   0  0  0  0  0  0  0  0  0  0  0  0
   -5.9852    1.8550    0.1844 H   0  0  0  0  0  0  0  0  0  0  0  0
   -5.2327    2.6141    1.6102 H   0  0  0  0  0  0  0  0  0  0  0  0
   -2.0057    0.9437   -0.6789 Au  0  0  0  0  0  0  0  0  0  0  0  0
   -0.5291    0.3368    6.4777 H   0  0  0  0  0  0  0  0  0  0  0  0
    2.3407    0.0754    5.8138 H   0  0  0  0  0  0  0  0  0  0  0  0
   -0.2168    0.5858    8.5358 H   0  0  0  0  0  0  0  0  0  0  0  0
    0.3957    0.7338   10.9402 H   0  0  0  0  0  0  0  0  0  0  0  0
    4.5424    0.1941    9.9600 H   0  0  0  0  0  0  0  0  0  0  0  0
    3.9522    0.0361    7.5300 H   0  0  0  0  0  0  0  0  0  0  0  0
  1  2  1  0  0  0  0
  1 29  1  0  0  0  0
  2  3  2  0  0  0  0
  2  7  1  0  0  0  0
  3  4  1  0  0  0  0
  4 31  1  0  0  0  0
  4  5  2  0  0  0  0
  5  9  1  0  0  0  0
  6  5  1  0  0  0  0
  6 32  1  0  0  0  0
  7  6  2  0  0  0  0
  8  7  1  0  0  0  0
  8 35  1  0  0  0  0
  8 33  1  0  0  0  0
  9 25  1  0  0  0  0
 10 12  2  0  0  0  0
 10  9  1  0  0  0  0
 11 10  1  0  0  0  0
 12 13  2  0  0  0  0
 13 14  2  0  0  0  0
 13 15  1  0  0  0  0
 15 16  1  1  0  0  0
 16 37  1  0  0  0  0
 16 17  2  0  0  0  0
 17 18  1  0  0  0  0
 18 24  2  0  0  0  0
 18 19  1  0  0  0  0
 19 20  2  0  0  0  0
 20 21  1  0  0  0  0
 20 40  1  0  0  0  0
 21 22  1  0  0  0  0
 23 41  1  0  0  0  0
 23 21  2  0  0  0  0
 24 23  1  0  0  0  0
 25 15  1  0  0  0  0
 25 26  2  0  0  0  0
 27  1  1  0  0  0  0
 28  1  1  0  0  0  0
 30  3  1  0  0  0  0
 34  8  1  0  0  0  0
 36 11  1  0  0  0  0
 38 17  1  0  0  0  0
 39 19  1  0  0  0  0
 42 24  1  0  0  0  0
M  RAD  1  15   2
M  END
