000-825-903.xyz
 OpenBabel07262113373D
SC1=NC(=O)/C(=N\Nc2c(=O)n(n(c2C)C)c2ccccc2)/C(=N1)O
 39 41  0  0  0  0  0  0  0  0999 V2000
   -2.1724   -0.7539    8.3085 C   0  0  0  0  0  0  0  0  0  0  0  0
   -0.7568   -0.4846    8.6911 C   0  0  0  0  0  0  0  0  0  0  0  0
    0.3278   -0.1670    7.9144 C   0  0  0  0  0  0  0  0  0  0  0  0
    0.4903   -0.0809    6.5457 N   0  0  0  0  0  0  0  0  0  0  0  0
   -0.5064   -0.0699    5.7150 N   0  0  0  0  0  0  0  0  0  0  0  0
   -0.2620   -0.0249    4.4149 C   0  0  0  0  0  0  0  0  0  0  0  0
   -1.4094   -0.0069    3.5332 C   0  0  0  0  0  0  0  0  0  0  0  0
   -2.6268    0.0009    4.0687 O   0  0  0  0  0  0  0  0  0  0  0  0
   -1.2823    0.0034    2.2394 N   0  0  0  0  0  0  0  0  0  0  0  0
   -0.0000    0.0000    1.7595 C   0  0  0  0  0  0  0  0  0  0  0  0
    0.0000    0.0000    0.0000 S   0  0  0  0  0  0  0  0  0  0  0  0
    1.1322    0.0000    2.4302 N   0  0  0  0  0  0  0  0  0  0  0  0
    1.0810   -0.0036    3.7975 C   0  0  0  0  0  0  0  0  0  0  0  0
    2.0918    0.0066    4.5146 O   0  0  0  0  0  0  0  0  0  0  0  0
    1.4919    0.0390    8.7792 C   0  0  0  0  0  0  0  0  0  0  0  0
    2.6464    0.2696    8.4784 O   0  0  0  0  0  0  0  0  0  0  0  0
    0.9847   -0.1534   10.0775 N   0  0  0  0  0  0  0  0  0  0  0  0
    1.7673   -0.4954   11.2060 C   0  0  0  0  0  0  0  0  0  0  0  0
    2.9375    0.2309   11.4694 C   0  0  0  0  0  0  0  0  0  0  0  0
    3.7226   -0.1129   12.5702 C   0  0  0  0  0  0  0  0  0  0  0  0
    3.3454   -1.1582   13.4185 C   0  0  0  0  0  0  0  0  0  0  0  0
    2.1783   -1.8775   13.1489 C   0  0  0  0  0  0  0  0  0  0  0  0
    1.3931   -1.5598   12.0395 C   0  0  0  0  0  0  0  0  0  0  0  0
   -0.3664   -0.5170   10.0251 N   0  0  0  0  0  0  0  0  0  0  0  0
   -1.2117    0.1227   11.0337 C   0  0  0  0  0  0  0  0  0  0  0  0
   -2.6340   -1.4797    8.9932 H   0  0  0  0  0  0  0  0  0  0  0  0
   -2.2089   -1.1557    7.2888 H   0  0  0  0  0  0  0  0  0  0  0  0
   -2.7805    0.1672    8.3224 H   0  0  0  0  0  0  0  0  0  0  0  0
    1.4495   -0.0176    6.1231 H   0  0  0  0  0  0  0  0  0  0  0  0
   -2.5029    0.0162    5.0353 H   0  0  0  0  0  0  0  0  0  0  0  0
    2.2777   -0.0008   -0.3796 Au  0  0  0  0  0  0  0  0  0  0  0  0
    3.2288    1.0400   10.8019 H   0  0  0  0  0  0  0  0  0  0  0  0
    4.6375    0.4499   12.7689 H   0  0  0  0  0  0  0  0  0  0  0  0
    3.9612   -1.4143   14.2833 H   0  0  0  0  0  0  0  0  0  0  0  0
    1.8809   -2.7050   13.7973 H   0  0  0  0  0  0  0  0  0  0  0  0
    0.5018   -2.1422   11.8028 H   0  0  0  0  0  0  0  0  0  0  0  0
   -1.2471    1.2175   10.8915 H   0  0  0  0  0  0  0  0  0  0  0  0
   -0.8178   -0.0987   12.0331 H   0  0  0  0  0  0  0  0  0  0  0  0
   -2.2245   -0.2916   10.9619 H   0  0  0  0  0  0  0  0  0  0  0  0
  1 28  1  0  0  0  0
  1  2  1  0  0  0  0
  1 26  1  0  0  0  0
  2 24  1  0  0  0  0
  3  2  2  0  0  0  0
  3 15  1  0  0  0  0
  4  3  1  0  0  0  0
  5  4  1  0  0  0  0
  6  5  2  0  0  0  0
  7  8  1  0  0  0  0
  7  6  1  0  0  0  0
  8 30  1  0  0  0  0
  9  7  2  0  0  0  0
 10  9  2  0  0  0  0
 10 12  2  0  0  0  0
 11 10  1  0  0  0  0
 12 13  2  0  0  0  0
 13  6  1  0  0  0  0
 13 14  2  0  0  0  0
 15 17  1  0  0  0  0
 16 15  2  0  0  0  0
 17 18  1  0  0  0  0
 18 19  2  0  0  0  0
 18 23  1  0  0  0  0
 19 20  1  0  0  0  0
 20 33  1  0  0  0  0
 20 21  2  0  0  0  0
 21 34  1  0  0  0  0
 22 21  1  0  0  0  0
 22 35  1  0  0  0  0
 23 22  2  0  0  0  0
 24 17  1  0  0  0  0
 24 25  1  0  0  0  0
 25 38  1  0  0  0  0
 27  1  1  0  0  0  0
 29  4  1  0  0  0  0
 31 11  1  0  0  0  0
 32 19  1  0  0  0  0
 36 23  1  0  0  0  0
 37 25  1  0  0  0  0
 39 25  1  0  0  0  0
M  END
