000-844-137.xyz
 OpenBabel07262113383D
Clc1ccc(cc1)N1C(=NC(=O)/C(=C/C2C(=NN(C2=O)c2ccccc2)C)/C1=O)S
 45 48  0  0  1  0  0  0  0  0999 V2000
   -2.1165   -0.1751    8.0424 C   0  0  0  0  0  0  0  0  0  0  0  0
   -2.5062    0.7874    6.9774 C   0  0  0  0  0  0  0  0  0  0  0  0
   -3.7221    0.9755    6.6143 N   0  0  0  0  0  0  0  0  0  0  0  0
   -3.7562    1.9121    5.5910 N   0  0  0  0  0  0  0  0  0  0  0  0
   -2.4927    2.3255    5.2005 C   0  0  0  0  0  0  0  0  0  0  0  0
   -2.2087    3.0195    4.2505 O   0  0  0  0  0  0  0  0  0  0  0  0
   -1.5357    1.6811    6.2251 C   0  0  2  0  0  0  0  0  0  0  0  0
   -0.2962    1.0833    5.6229 C   0  0  0  0  0  0  0  0  0  0  0  0
   -0.2252    0.3959    4.4637 C   0  0  0  0  0  0  0  0  0  0  0  0
    1.1083    0.1072    3.8318 C   0  0  0  0  0  0  0  0  0  0  0  0
    2.1294    0.0411    4.4835 O   0  0  0  0  0  0  0  0  0  0  0  0
    1.1039    0.0000    2.4439 N   0  0  0  0  0  0  0  0  0  0  0  0
   -0.0000    0.0000    1.7629 C   0  0  0  0  0  0  0  0  0  0  0  0
    0.0000    0.0000    0.0000 S   0  0  0  0  0  0  0  0  0  0  0  0
   -1.2746   -0.0203    2.3173 N   0  0  0  0  0  0  0  0  0  0  0  0
   -1.4401    0.0352    3.7102 C   0  0  0  0  0  0  0  0  0  0  0  0
   -2.5238   -0.1701    4.2159 O   0  0  0  0  0  0  0  0  0  0  0  0
   -2.4870    0.0149    1.5405 C   0  0  0  0  0  0  0  0  0  0  0  0
   -3.2012    1.2167    1.4980 C   0  0  0  0  0  0  0  0  0  0  0  0
   -4.4358    1.2636    0.8583 C   0  0  0  0  0  0  0  0  0  0  0  0
   -4.9460    0.1022    0.2726 C   0  0  0  0  0  0  0  0  0  0  0  0
   -6.5242    0.1481   -0.4727 Cl  0  0  0  0  0  0  0  0  0  0  0  0
   -4.2304   -1.0983    0.2989 C   0  0  0  0  0  0  0  0  0  0  0  0
   -2.9952   -1.1415    0.9463 C   0  0  0  0  0  0  0  0  0  0  0  0
   -4.8969    1.9839    4.7499 C   0  0  0  0  0  0  0  0  0  0  0  0
   -5.6678    0.8349    4.5328 C   0  0  0  0  0  0  0  0  0  0  0  0
   -6.7473    0.8878    3.6520 C   0  0  0  0  0  0  0  0  0  0  0  0
   -7.0617    2.0758    2.9850 C   0  0  0  0  0  0  0  0  0  0  0  0
   -6.2898    3.2186    3.2111 C   0  0  0  0  0  0  0  0  0  0  0  0
   -5.2072    3.1808    4.0930 C   0  0  0  0  0  0  0  0  0  0  0  0
   -1.4560   -0.9538    7.6252 H   0  0  0  0  0  0  0  0  0  0  0  0
   -3.0118   -0.6531    8.4615 H   0  0  0  0  0  0  0  0  0  0  0  0
   -1.5595    0.3261    8.8518 H   0  0  0  0  0  0  0  0  0  0  0  0
   -1.2229    2.4848    6.9174 H   0  0  0  0  0  0  0  0  0  0  0  0
    0.6614    1.3019    6.1043 H   0  0  0  0  0  0  0  0  0  0  0  0
    2.3053    0.0445   -0.2747 Au  0  0  0  0  0  0  0  0  0  0  0  0
   -2.8087    2.0976    2.0091 H   0  0  0  0  0  0  0  0  0  0  0  0
   -5.0155    2.1849    0.8414 H   0  0  0  0  0  0  0  0  0  0  0  0
   -4.6499   -1.9921   -0.1640 H   0  0  0  0  0  0  0  0  0  0  0  0
   -2.4323   -2.0743    1.0034 H   0  0  0  0  0  0  0  0  0  0  0  0
   -5.3926   -0.0881    5.0412 H   0  0  0  0  0  0  0  0  0  0  0  0
   -7.3373   -0.0132    3.4690 H   0  0  0  0  0  0  0  0  0  0  0  0
   -7.8960    2.1043    2.2811 H   0  0  0  0  0  0  0  0  0  0  0  0
   -6.5296    4.1528    2.6973 H   0  0  0  0  0  0  0  0  0  0  0  0
   -4.5961    4.0662    4.2631 H   0  0  0  0  0  0  0  0  0  0  0  0
  1 32  1  0  0  0  0
  1 33  1  0  0  0  0
  2  1  1  0  0  0  0
  3  2  2  0  0  0  0
  4  3  1  0  0  0  0
  5  4  1  0  0  0  0
  5  7  1  0  0  0  0
  6  5  2  0  0  0  0
  7 34  1  1  0  0  0
  7  2  1  0  0  0  0
  8 35  1  0  0  0  0
  8  7  1  0  0  0  0
  9  8  2  0  0  0  0
 10  9  1  0  0  0  0
 10 11  2  0  0  0  0
 12 10  2  0  0  0  0
 13 15  1  0  0  0  0
 13 12  2  0  0  0  0
 14 13  1  0  0  0  0
 15 16  1  0  0  0  0
 16 17  2  0  0  0  0
 16  9  1  0  0  0  0
 18 15  1  0  0  0  0
 19 18  1  0  0  0  0
 19 37  1  0  0  0  0
 20 19  2  0  0  0  0
 21 23  2  0  0  0  0
 21 20  1  0  0  0  0
 22 21  1  0  0  0  0
 23 24  1  0  0  0  0
 24 40  1  0  0  0  0
 24 18  2  0  0  0  0
 25  4  1  0  0  0  0
 26 25  1  0  0  0  0
 26 41  1  0  0  0  0
 27 26  2  0  0  0  0
 28 29  2  0  0  0  0
 28 27  1  0  0  0  0
 29 30  1  0  0  0  0
 30 45  1  0  0  0  0
 30 25  2  0  0  0  0
 31  1  1  0  0  0  0
 36 14  1  0  0  0  0
 38 20  1  0  0  0  0
 39 23  1  0  0  0  0
 42 27  1  0  0  0  0
 43 28  1  0  0  0  0
 44 29  1  0  0  0  0
M  END
