000-888-884.xyz
 OpenBabel07262113383D
O=C1N=C(S/C/1=C/c1ccc(cc1)[N+](=O)[O-])S
 23 24  0  0  0  0  0  0  0  0999 V2000
    1.7608   -0.0008   11.5938 O   0  0  0  0  0  0  0  0  0  0  0  0
    0.7479    0.0013   10.9122 N   0  0  0  0  0  0  0  0  0  0  0  0
   -0.3909    0.0041   11.3501 O   0  0  0  0  0  0  0  0  0  0  0  0
    0.9148    0.0006    9.4458 C   0  0  0  0  0  0  0  0  0  0  0  0
   -0.2171    0.0025    8.6310 C   0  0  0  0  0  0  0  0  0  0  0  0
   -0.0642    0.0018    7.2479 C   0  0  0  0  0  0  0  0  0  0  0  0
    1.2249   -0.0004    6.6688 C   0  0  0  0  0  0  0  0  0  0  0  0
    1.5222   -0.0006    5.2388 C   0  0  0  0  0  0  0  0  0  0  0  0
    0.7731    0.0001    4.1037 C   0  0  0  0  0  0  0  0  0  0  0  0
    1.5943    0.0000    2.5261 S   0  0  0  0  0  0  0  0  0  0  0  0
   -0.0000   -0.0000    1.7357 C   0  0  0  0  0  0  0  0  0  0  0  0
    0.0000    0.0000    0.0000 S   0  0  0  0  0  0  0  0  0  0  0  0
   -1.0381    0.0000    2.5038 N   0  0  0  0  0  0  0  0  0  0  0  0
   -0.7253    0.0003    3.8669 C   0  0  0  0  0  0  0  0  0  0  0  0
   -1.5716    0.0007    4.7355 O   0  0  0  0  0  0  0  0  0  0  0  0
    2.3480   -0.0024    7.5324 C   0  0  0  0  0  0  0  0  0  0  0  0
    2.2042   -0.0020    8.9134 C   0  0  0  0  0  0  0  0  0  0  0  0
   -1.2042    0.0044    9.0916 H   0  0  0  0  0  0  0  0  0  0  0  0
   -0.9364    0.0030    6.5982 H   0  0  0  0  0  0  0  0  0  0  0  0
    2.6024   -0.0013    5.0542 H   0  0  0  0  0  0  0  0  0  0  0  0
   -2.3010   -0.0025   -0.3064 Au  0  0  0  0  0  0  0  0  0  0  0  0
    3.3523   -0.0042    7.1025 H   0  0  0  0  0  0  0  0  0  0  0  0
    3.0616   -0.0035    9.5848 H   0  0  0  0  0  0  0  0  0  0  0  0
  2  3  2  0  0  0  0
  2  1  2  0  0  0  0
  4  2  1  0  0  0  0
  5 18  1  0  0  0  0
  5  4  2  0  0  0  0
  6  5  1  0  0  0  0
  7  6  2  0  0  0  0
  7 16  1  0  0  0  0
  8  7  1  0  0  0  0
  9  8  2  0  0  0  0
 10  9  1  0  0  0  0
 11 13  2  0  0  0  0
 11 10  1  0  0  0  0
 12 11  1  0  0  0  0
 13 14  2  0  0  0  0
 14  9  1  0  0  0  0
 14 15  2  0  0  0  0
 16 17  2  0  0  0  0
 17  4  1  0  0  0  0
 17 23  1  0  0  0  0
 19  6  1  0  0  0  0
 20  8  1  0  0  0  0
 21 12  1  0  0  0  0
 22 16  1  0  0  0  0
M  END
