000-757-416.xyz
 OpenBabel07262113353D
CN1C(=NC(=O)/C(=C/c2ccc(o2)c2ccccc2C(=O)O)/C1=O)S
 37 39  0  0  0  0  0  0  0  0999 V2000
    2.4720   -0.0024    1.5369 C   0  0  0  0  0  0  0  0  0  0  0  0
    1.2559    0.0000    2.3505 N   0  0  0  0  0  0  0  0  0  0  0  0
    0.0000   -0.0000    1.7704 C   0  0  0  0  0  0  0  0  0  0  0  0
    0.0000    0.0000    0.0000 S   0  0  0  0  0  0  0  0  0  0  0  0
   -1.1255   -0.0004    2.4149 N   0  0  0  0  0  0  0  0  0  0  0  0
   -1.1638    0.0001    3.8018 C   0  0  0  0  0  0  0  0  0  0  0  0
   -2.2246   -0.0027    4.4007 O   0  0  0  0  0  0  0  0  0  0  0  0
    0.1531    0.0054    4.5222 C   0  0  0  0  0  0  0  0  0  0  0  0
    0.0839    0.0148    5.8916 C   0  0  0  0  0  0  0  0  0  0  0  0
    1.0437    0.0220    6.9388 C   0  0  0  0  0  0  0  0  0  0  0  0
    2.4271    0.0219    7.0891 C   0  0  0  0  0  0  0  0  0  0  0  0
    2.6923    0.0377    8.4758 C   0  0  0  0  0  0  0  0  0  0  0  0
    1.4629    0.0523    9.1222 C   0  0  0  0  0  0  0  0  0  0  0  0
    0.4779    0.0392    8.1992 O   0  0  0  0  0  0  0  0  0  0  0  0
    1.0498   -0.0223   10.5251 C   0  0  0  0  0  0  0  0  0  0  0  0
   -0.1904   -0.6333   10.8034 C   0  0  0  0  0  0  0  0  0  0  0  0
   -0.6214   -0.8298   12.1117 C   0  0  0  0  0  0  0  0  0  0  0  0
    0.1892   -0.4365   13.1801 C   0  0  0  0  0  0  0  0  0  0  0  0
    1.4129    0.1773   12.9232 C   0  0  0  0  0  0  0  0  0  0  0  0
    1.8461    0.4225   11.6121 C   0  0  0  0  0  0  0  0  0  0  0  0
    3.1388    1.1964   11.5166 C   0  0  0  0  0  0  0  0  0  0  0  0
    3.2560    2.0918   10.5143 O   0  0  0  0  0  0  0  0  0  0  0  0
    4.0153    1.0875   12.3323 O   0  0  0  0  0  0  0  0  0  0  0  0
    1.4036    0.0009    3.7569 C   0  0  0  0  0  0  0  0  0  0  0  0
    2.5221   -0.0017    4.2460 O   0  0  0  0  0  0  0  0  0  0  0  0
    2.5084    0.8925    0.8988 H   0  0  0  0  0  0  0  0  0  0  0  0
    3.3245   -0.0025    2.2238 H   0  0  0  0  0  0  0  0  0  0  0  0
    2.5064   -0.8988    0.9009 H   0  0  0  0  0  0  0  0  0  0  0  0
   -2.3146   -0.0011   -0.2338 Au  0  0  0  0  0  0  0  0  0  0  0  0
   -0.9494    0.0175    6.2570 H   0  0  0  0  0  0  0  0  0  0  0  0
    3.1319    0.0031    6.2667 H   0  0  0  0  0  0  0  0  0  0  0  0
    3.6700    0.0196    8.9485 H   0  0  0  0  0  0  0  0  0  0  0  0
   -0.8022   -0.9750    9.9683 H   0  0  0  0  0  0  0  0  0  0  0  0
   -1.5863   -1.3071   12.2968 H   0  0  0  0  0  0  0  0  0  0  0  0
   -0.1327   -0.6030   14.2103 H   0  0  0  0  0  0  0  0  0  0  0  0
    2.0594    0.5013   13.7399 H   0  0  0  0  0  0  0  0  0  0  0  0
    2.4784    2.0751    9.9365 H   0  0  0  0  0  0  0  0  0  0  0  0
  1 27  1  0  0  0  0
  1  2  1  0  0  0  0
  2 24  1  0  0  0  0
  3  2  1  0  0  0  0
  3  5  2  0  0  0  0
  4  3  1  0  0  0  0
  5  6  2  0  0  0  0
  6  7  2  0  0  0  0
  6  8  1  0  0  0  0
  8  9  2  0  0  0  0
  9 30  1  0  0  0  0
  9 10  1  0  0  0  0
 10 11  2  0  0  0  0
 10 14  1  0  0  0  0
 11 12  1  0  0  0  0
 12 32  1  0  0  0  0
 12 13  2  0  0  0  0
 13 15  1  0  0  0  0
 14 13  1  0  0  0  0
 15 16  2  0  0  0  0
 15 20  1  0  0  0  0
 16 17  1  0  0  0  0
 17 34  1  0  0  0  0
 17 18  2  0  0  0  0
 18 35  1  0  0  0  0
 19 18  1  0  0  0  0
 19 36  1  0  0  0  0
 20 19  2  0  0  0  0
 21 20  1  0  0  0  0
 21 23  2  0  0  0  0
 22 21  1  0  0  0  0
 24 25  2  0  0  0  0
 24  8  1  0  0  0  0
 26  1  1  0  0  0  0
 28  1  1  0  0  0  0
 29  4  1  0  0  0  0
 31 11  1  0  0  0  0
 33 16  1  0  0  0  0
 37 22  1  0  0  0  0
M  END
