000-748-437.xyz
 OpenBabel07262113343D
SC1=NC(=O)/C(=C/2\c3cc(cc4c3N(C2=O)C(C)(C)C=C4C)OC(=O)c2cccs2)/S1
 47 51  0  0  0  0  0  0  0  0999 V2000
    2.8064    0.0026   11.2468 C   0  0  0  0  0  0  0  0  0  0  0  0
    2.8538   -0.0037    9.7449 C   0  0  0  0  0  0  0  0  0  0  0  0
    4.0148   -0.0030    9.0597 C   0  0  0  0  0  0  0  0  0  0  0  0
    4.1970   -0.0052    7.5511 C   0  0  0  0  0  0  0  0  0  0  0  0
    4.9634   -1.2734    7.1284 C   0  0  0  0  0  0  0  0  0  0  0  0
    4.9696    1.2586    7.1262 C   0  0  0  0  0  0  0  0  0  0  0  0
    2.8677   -0.0024    6.9036 N   0  0  0  0  0  0  0  0  0  0  0  0
    2.6052   -0.0014    5.5500 C   0  0  0  0  0  0  0  0  0  0  0  0
    3.4192   -0.0020    4.6400 O   0  0  0  0  0  0  0  0  0  0  0  0
    1.0952   -0.0004    5.3961 C   0  0  0  0  0  0  0  0  0  0  0  0
    0.5601    0.0002    4.1467 C   0  0  0  0  0  0  0  0  0  0  0  0
    1.5354   -0.0000    2.6765 S   0  0  0  0  0  0  0  0  0  0  0  0
   -0.0000    0.0000    1.7426 C   0  0  0  0  0  0  0  0  0  0  0  0
    0.0000    0.0000    0.0000 S   0  0  0  0  0  0  0  0  0  0  0  0
   -1.1101    0.0002    2.3911 N   0  0  0  0  0  0  0  0  0  0  0  0
   -0.9155    0.0005    3.7768 C   0  0  0  0  0  0  0  0  0  0  0  0
   -1.8128    0.0008    4.5878 O   0  0  0  0  0  0  0  0  0  0  0  0
    0.5514   -0.0001    6.7530 C   0  0  0  0  0  0  0  0  0  0  0  0
   -0.7276    0.0057    7.3262 C   0  0  0  0  0  0  0  0  0  0  0  0
   -0.8290    0.0041    8.7211 C   0  0  0  0  0  0  0  0  0  0  0  0
   -2.1284   -0.0446    9.2060 O   0  0  0  0  0  0  0  0  0  0  0  0
   -2.5284    0.5798   10.3470 C   0  0  0  0  0  0  0  0  0  0  0  0
   -1.8015    1.1868   11.0952 O   0  0  0  0  0  0  0  0  0  0  0  0
   -3.9728    0.4063   10.5428 C   0  0  0  0  0  0  0  0  0  0  0  0
   -4.7017    0.8986   11.6075 C   0  0  0  0  0  0  0  0  0  0  0  0
   -6.0817    0.5774   11.5182 C   0  0  0  0  0  0  0  0  0  0  0  0
   -6.3759   -0.1529   10.3870 C   0  0  0  0  0  0  0  0  0  0  0  0
   -4.9838   -0.4567    9.4196 S   0  0  0  0  0  0  0  0  0  0  0  0
    0.2948   -0.0077    9.5605 C   0  0  0  0  0  0  0  0  0  0  0  0
    1.5829   -0.0057    8.9997 C   0  0  0  0  0  0  0  0  0  0  0  0
    1.6679   -0.0028    7.6123 C   0  0  0  0  0  0  0  0  0  0  0  0
    2.2744   -0.8845   11.6297 H   0  0  0  0  0  0  0  0  0  0  0  0
    3.8160    0.0111   11.6804 H   0  0  0  0  0  0  0  0  0  0  0  0
    2.2607    0.8847   11.6211 H   0  0  0  0  0  0  0  0  0  0  0  0
    4.9586    0.0005    9.6128 H   0  0  0  0  0  0  0  0  0  0  0  0
    5.1085   -1.2858    6.0392 H   0  0  0  0  0  0  0  0  0  0  0  0
    5.9493   -1.2983    7.6170 H   0  0  0  0  0  0  0  0  0  0  0  0
    4.4053   -2.1731    7.4269 H   0  0  0  0  0  0  0  0  0  0  0  0
    5.1138    1.2687    6.0370 H   0  0  0  0  0  0  0  0  0  0  0  0
    4.4162    2.1614    7.4240 H   0  0  0  0  0  0  0  0  0  0  0  0
    5.9559    1.2790    7.6141 H   0  0  0  0  0  0  0  0  0  0  0  0
    2.2584   -0.0030   -0.4875 Au  0  0  0  0  0  0  0  0  0  0  0  0
   -1.6211    0.0084    6.7079 H   0  0  0  0  0  0  0  0  0  0  0  0
   -4.2350    1.4691   12.4106 H   0  0  0  0  0  0  0  0  0  0  0  0
   -6.8296    0.8712   12.2554 H   0  0  0  0  0  0  0  0  0  0  0  0
   -7.3488   -0.5288   10.0724 H   0  0  0  0  0  0  0  0  0  0  0  0
    0.1614    0.0001   10.6383 H   0  0  0  0  0  0  0  0  0  0  0  0
  1 34  1  0  0  0  0
  1 32  1  0  0  0  0
  1 33  1  0  0  0  0
  2  1  1  0  0  0  0
  3 35  1  0  0  0  0
  3  2  2  0  0  0  0
  4  3  1  0  0  0  0
  5 38  1  0  0  0  0
  5  4  1  0  0  0  0
  5 37  1  0  0  0  0
  6 40  1  0  0  0  0
  6  4  1  0  0  0  0
  6 41  1  0  0  0  0
  7  4  1  0  0  0  0
  7 31  1  0  0  0  0
  8  7  1  0  0  0  0
  9  8  2  0  0  0  0
 10  8  1  0  0  0  0
 10 18  1  0  0  0  0
 11 10  2  0  0  0  0
 12 11  1  0  0  0  0
 13 15  2  0  0  0  0
 13 12  1  0  0  0  0
 14 13  1  0  0  0  0
 15 16  2  0  0  0  0
 16 11  1  0  0  0  0
 16 17  2  0  0  0  0
 18 19  2  0  0  0  0
 18 31  1  0  0  0  0
 19 20  1  0  0  0  0
 20 21  1  0  0  0  0
 20 29  2  0  0  0  0
 21 22  1  0  0  0  0
 22 24  1  0  0  0  0
 22 23  2  0  0  0  0
 24 25  2  0  0  0  0
 25 44  1  0  0  0  0
 26 25  1  0  0  0  0
 26 45  1  0  0  0  0
 27 26  2  0  0  0  0
 28 27  1  0  0  0  0
 28 24  1  0  0  0  0
 29 47  1  0  0  0  0
 30 29  1  0  0  0  0
 30  2  1  0  0  0  0
 31 30  2  0  0  0  0
 36  5  1  0  0  0  0
 39  6  1  0  0  0  0
 42 14  1  0  0  0  0
 43 19  1  0  0  0  0
 46 27  1  0  0  0  0
M  END
