000-815-758.xyz
 OpenBabel07262113373D
SC1=NC(=O)/C(=N/Nc2ccc(c(c2)C(=O)O)O)/C(=N1)O
 29 30  0  0  0  0  0  0  0  0999 V2000
    2.0784    0.0038    9.8456 O   0  0  0  0  0  0  0  0  0  0  0  0
    1.0278    0.0078   10.6970 C   0  0  0  0  0  0  0  0  0  0  0  0
    1.1739    0.0099   11.8942 O   0  0  0  0  0  0  0  0  0  0  0  0
   -0.2745    0.0089    9.9664 C   0  0  0  0  0  0  0  0  0  0  0  0
   -0.2775    0.0063    8.5660 C   0  0  0  0  0  0  0  0  0  0  0  0
   -1.4769    0.0072    7.8500 C   0  0  0  0  0  0  0  0  0  0  0  0
   -1.4882    0.0049    6.4432 N   0  0  0  0  0  0  0  0  0  0  0  0
   -0.3856    0.0034    5.7696 N   0  0  0  0  0  0  0  0  0  0  0  0
   -0.3222    0.0016    4.4577 C   0  0  0  0  0  0  0  0  0  0  0  0
   -1.4337    0.0010    3.5288 C   0  0  0  0  0  0  0  0  0  0  0  0
   -2.6825    0.0014    4.0403 O   0  0  0  0  0  0  0  0  0  0  0  0
   -1.2998    0.0001    2.2440 N   0  0  0  0  0  0  0  0  0  0  0  0
    0.0000    0.0000    1.7626 C   0  0  0  0  0  0  0  0  0  0  0  0
    0.0000    0.0000    0.0000 S   0  0  0  0  0  0  0  0  0  0  0  0
    1.1012   -0.0000    2.4493 N   0  0  0  0  0  0  0  0  0  0  0  0
    1.0554    0.0003    3.8454 C   0  0  0  0  0  0  0  0  0  0  0  0
    2.0603   -0.0002    4.5237 O   0  0  0  0  0  0  0  0  0  0  0  0
   -2.6972    0.0106    8.5375 C   0  0  0  0  0  0  0  0  0  0  0  0
   -2.7066    0.0132    9.9268 C   0  0  0  0  0  0  0  0  0  0  0  0
   -1.5102    0.0125   10.6641 C   0  0  0  0  0  0  0  0  0  0  0  0
   -1.5232    0.0151   12.0083 O   0  0  0  0  0  0  0  0  0  0  0  0
    2.8769    0.0034   10.3984 H   0  0  0  0  0  0  0  0  0  0  0  0
    0.6644    0.0037    8.0208 H   0  0  0  0  0  0  0  0  0  0  0  0
   -2.3923    0.0046    5.9617 H   0  0  0  0  0  0  0  0  0  0  0  0
   -3.2918    0.0009    3.2795 H   0  0  0  0  0  0  0  0  0  0  0  0
    2.2858    0.0021   -0.3399 Au  0  0  0  0  0  0  0  0  0  0  0  0
   -3.6417    0.0114    7.9872 H   0  0  0  0  0  0  0  0  0  0  0  0
   -3.6601    0.0160   10.4625 H   0  0  0  0  0  0  0  0  0  0  0  0
   -2.4387    0.0173   12.3189 H   0  0  0  0  0  0  0  0  0  0  0  0
  1 22  1  0  0  0  0
  1  2  1  0  0  0  0
  2  3  2  0  0  0  0
  4 20  1  0  0  0  0
  4  2  1  0  0  0  0
  5  4  2  0  0  0  0
  6 18  2  0  0  0  0
  6  5  1  0  0  0  0
  7  6  1  0  0  0  0
  8  7  1  0  0  0  0
  9  8  2  0  0  0  0
 10 11  1  0  0  0  0
 10  9  1  0  0  0  0
 12 10  2  0  0  0  0
 13 12  2  0  0  0  0
 13 15  2  0  0  0  0
 14 13  1  0  0  0  0
 15 16  2  0  0  0  0
 16  9  1  0  0  0  0
 16 17  2  0  0  0  0
 18 19  1  0  0  0  0
 19 28  1  0  0  0  0
 19 20  2  0  0  0  0
 20 21  1  0  0  0  0
 21 29  1  0  0  0  0
 23  5  1  0  0  0  0
 24  7  1  0  0  0  0
 25 11  1  0  0  0  0
 26 14  1  0  0  0  0
 27 18  1  0  0  0  0
M  END
