000-887-432.xyz
 OpenBabel07262113383D
SC1=NC(=O)/C(=C\c2cccnc2)/S1
 20 21  0  0  1  0  0  0  0  0999 V2000
    0.0000    0.0000    0.0000 S   0  0  0  0  0  0  0  0  0  0  0  0
    0.0000    0.0000    1.7381 C   0  0  0  0  0  0  0  0  0  0  0  0
   -1.0394   -0.0000    2.5036 N   0  0  0  0  0  0  0  0  0  0  0  0
   -0.7276    0.0001    3.8698 C   0  0  0  0  0  0  0  0  0  0  0  0
   -1.5741    0.0003    4.7375 O   0  0  0  0  0  0  0  0  0  0  0  0
    0.7670    0.0000    4.1072 C   0  0  0  0  0  0  0  0  0  0  0  0
    1.5925    0.0000    2.5291 S   0  0  0  0  0  0  0  0  0  0  0  0
    1.5103   -0.0003    5.2453 C   0  0  0  0  0  0  0  0  0  0  0  0
    1.2155   -0.0004    6.6746 C   0  0  1  0  0  0  0  0  0  0  0  0
    2.3251   -0.0015    7.5483 C   0  0  0  0  0  0  0  0  0  0  0  0
    2.1278   -0.0016    8.9233 C   0  0  0  0  0  0  0  0  0  0  0  0
    0.8127   -0.0006    9.3994 C   0  0  0  0  0  0  0  0  0  0  0  0
   -0.2541    0.0006    8.5974 N   0  0  0  0  0  0  0  0  0  0  0  0
   -0.0668    0.0007    7.2774 C   0  0  0  0  0  0  0  0  0  0  0  0
   -2.3023   -0.0011   -0.2972 Au  0  0  0  0  0  0  0  0  0  0  0  0
    2.5917   -0.0006    5.0637 H   0  0  0  0  0  0  0  0  0  0  0  0
    3.3381   -0.0023    7.1362 H   0  0  0  0  0  0  0  0  0  0  0  0
    2.9714   -0.0025    9.6166 H   0  0  0  0  0  0  0  0  0  0  0  0
    0.6157   -0.0006   10.4780 H   0  0  0  0  0  0  0  0  0  0  0  0
   -0.9550    0.0015    6.6455 H   0  0  0  0  0  0  0  0  0  0  0  0
  1  2  1  0  0  0  0
  2  3  2  0  0  0  0
  2  7  1  0  0  0  0
  3  4  2  0  0  0  0
  4  6  1  0  0  0  0
  4  5  2  0  0  0  0
  6  8  2  0  0  0  0
  7  6  1  0  0  0  0
  9  8  1  1  0  0  0
  9 14  1  0  0  0  0
  9 10  1  0  0  0  0
 10 11  2  0  0  0  0
 11 12  1  0  0  0  0
 11 18  1  0  0  0  0
 12 19  1  0  0  0  0
 13 12  2  0  0  0  0
 14 13  2  0  0  0  0
 15  1  1  0  0  0  0
 16  8  1  0  0  0  0
 17 10  1  0  0  0  0
 20 14  1  0  0  0  0
M  RAD  1   9   2
M  END
