000-799-772.xyz
 OpenBabel07262113363D
SC1=NC(=O)/C(=C/c2cc(n(c2C)c2cccc(c2)I)C)/C(=N1)O
 38 40  0  0  0  0  0  0  0  0999 V2000
    3.4785   -0.0531    9.3883 C   0  0  0  0  0  0  0  0  0  0  0  0
    2.2124   -0.0434    8.6015 C   0  0  0  0  0  0  0  0  0  0  0  0
    1.9890   -0.0395    7.2524 C   0  0  0  0  0  0  0  0  0  0  0  0
    0.5610   -0.0136    7.0274 C   0  0  0  0  0  0  0  0  0  0  0  0
   -0.2450   -0.0048    5.8548 C   0  0  0  0  0  0  0  0  0  0  0  0
   -0.0570   -0.0040    4.4882 C   0  0  0  0  0  0  0  0  0  0  0  0
    1.1660   -0.0019    3.7266 C   0  0  0  0  0  0  0  0  0  0  0  0
    2.3420    0.0004    4.3625 O   0  0  0  0  0  0  0  0  0  0  0  0
    1.2102    0.0000    2.4224 N   0  0  0  0  0  0  0  0  0  0  0  0
   -0.0000   -0.0000    1.7703 C   0  0  0  0  0  0  0  0  0  0  0  0
    0.0000    0.0000    0.0000 S   0  0  0  0  0  0  0  0  0  0  0  0
   -1.1882    0.0003    2.2846 N   0  0  0  0  0  0  0  0  0  0  0  0
   -1.3292   -0.0010    3.6662 C   0  0  0  0  0  0  0  0  0  0  0  0
   -2.4262   -0.0002    4.1988 O   0  0  0  0  0  0  0  0  0  0  0  0
   -0.0438   -0.0011    8.3088 C   0  0  0  0  0  0  0  0  0  0  0  0
   -1.4759    0.0222    8.7210 C   0  0  0  0  0  0  0  0  0  0  0  0
    0.9589   -0.0195    9.2357 N   0  0  0  0  0  0  0  0  0  0  0  0
    0.7686   -0.0090   10.6499 C   0  0  0  0  0  0  0  0  0  0  0  0
    0.8052   -1.2077   11.3682 C   0  0  0  0  0  0  0  0  0  0  0  0
    0.6228   -1.1836   12.7522 C   0  0  0  0  0  0  0  0  0  0  0  0
    0.4012    0.0241   13.4200 C   0  0  0  0  0  0  0  0  0  0  0  0
    0.3665    1.2147   12.6871 C   0  0  0  0  0  0  0  0  0  0  0  0
    0.0318    3.0557   13.6859 I   0  0  0  0  0  0  0  0  0  0  0  0
    0.5520    1.2096   11.3025 C   0  0  0  0  0  0  0  0  0  0  0  0
    3.5568    0.8259   10.0497 H   0  0  0  0  0  0  0  0  0  0  0  0
    4.3372   -0.0441    8.7039 H   0  0  0  0  0  0  0  0  0  0  0  0
    3.5613   -0.9459   10.0302 H   0  0  0  0  0  0  0  0  0  0  0  0
    2.7503   -0.0514    6.4841 H   0  0  0  0  0  0  0  0  0  0  0  0
   -1.3212    0.0027    6.0614 H   0  0  0  0  0  0  0  0  0  0  0  0
    3.0163    0.0046    3.6602 H   0  0  0  0  0  0  0  0  0  0  0  0
    2.2367    0.0014   -0.5391 Au  0  0  0  0  0  0  0  0  0  0  0  0
   -1.7248    0.9517    9.2593 H   0  0  0  0  0  0  0  0  0  0  0  0
   -1.7060   -0.8131    9.4019 H   0  0  0  0  0  0  0  0  0  0  0  0
   -2.1400   -0.0523    7.8520 H   0  0  0  0  0  0  0  0  0  0  0  0
    0.9725   -2.1459   10.8367 H   0  0  0  0  0  0  0  0  0  0  0  0
    0.6490   -2.1154   13.3212 H   0  0  0  0  0  0  0  0  0  0  0  0
    0.2564    0.0365   14.5010 H   0  0  0  0  0  0  0  0  0  0  0  0
    0.5335    2.1329   10.7227 H   0  0  0  0  0  0  0  0  0  0  0  0
  1 27  1  0  0  0  0
  1 25  1  0  0  0  0
  2 17  1  0  0  0  0
  2  1  1  0  0  0  0
  3  2  2  0  0  0  0
  4  3  1  0  0  0  0
  4 15  2  0  0  0  0
  5 29  1  0  0  0  0
  5  4  1  0  0  0  0
  6  5  2  0  0  0  0
  7  8  1  0  0  0  0
  7  6  1  0  0  0  0
  9  7  2  0  0  0  0
 10 12  2  0  0  0  0
 10  9  2  0  0  0  0
 11 10  1  0  0  0  0
 12 13  2  0  0  0  0
 13 14  2  0  0  0  0
 13  6  1  0  0  0  0
 15 16  1  0  0  0  0
 15 17  1  0  0  0  0
 16 32  1  0  0  0  0
 16 33  1  0  0  0  0
 17 18  1  0  0  0  0
 18 24  2  0  0  0  0
 18 19  1  0  0  0  0
 19 20  2  0  0  0  0
 20 36  1  0  0  0  0
 20 21  1  0  0  0  0
 21 37  1  0  0  0  0
 22 21  2  0  0  0  0
 22 23  1  0  0  0  0
 24 22  1  0  0  0  0
 26  1  1  0  0  0  0
 28  3  1  0  0  0  0
 30  8  1  0  0  0  0
 31 11  1  0  0  0  0
 34 16  1  0  0  0  0
 35 19  1  0  0  0  0
 38 24  1  0  0  0  0
M  END
