000-697-997.xyz
 OpenBabel07262113333D
O=C1N=C(S)N(C(=O)/C/1=C\C=C\c1ccco1)c1ccccc1Cl
 35 37  0  0  0  0  0  0  0  0999 V2000
    0.0000    0.0000    0.0000 S   0  0  0  0  0  0  0  0  0  0  0  0
    0.0000    0.0000    1.7704 C   0  0  0  0  0  0  0  0  0  0  0  0
   -1.1031   -0.0081    2.4417 N   0  0  0  0  0  0  0  0  0  0  0  0
   -1.0991   -0.0003    3.8355 C   0  0  0  0  0  0  0  0  0  0  0  0
   -2.1448   -0.0081    4.4600 O   0  0  0  0  0  0  0  0  0  0  0  0
    0.2303    0.0192    4.5236 C   0  0  0  0  0  0  0  0  0  0  0  0
    0.2295    0.0363    5.8963 C   0  0  0  0  0  0  0  0  0  0  0  0
    1.3431    0.0628    6.7872 C   0  0  0  0  0  0  0  0  0  0  0  0
    1.1531    0.0778    8.1391 C   0  0  0  0  0  0  0  0  0  0  0  0
    2.1961    0.1070    9.1157 C   0  0  0  0  0  0  0  0  0  0  0  0
    3.5789    0.1298    9.0483 C   0  0  0  0  0  0  0  0  0  0  0  0
    4.0518    0.1545   10.3895 C   0  0  0  0  0  0  0  0  0  0  0  0
    2.9329    0.1452   11.1856 C   0  0  0  0  0  0  0  0  0  0  0  0
    1.8161    0.1168   10.4326 O   0  0  0  0  0  0  0  0  0  0  0  0
    1.4687    0.0265    3.7340 C   0  0  0  0  0  0  0  0  0  0  0  0
    2.6063    0.0497    4.1663 O   0  0  0  0  0  0  0  0  0  0  0  0
    1.2705    0.0000    2.3288 N   0  0  0  0  0  0  0  0  0  0  0  0
    2.4357    0.0939    1.5018 C   0  0  0  0  0  0  0  0  0  0  0  0
    3.0771   -1.0618    1.0514 C   0  0  0  0  0  0  0  0  0  0  0  0
    4.2098   -0.9680    0.2436 C   0  0  0  0  0  0  0  0  0  0  0  0
    4.7077    0.2896   -0.1086 C   0  0  0  0  0  0  0  0  0  0  0  0
    4.0812    1.4525    0.3441 C   0  0  0  0  0  0  0  0  0  0  0  0
    2.9478    1.3534    1.1521 C   0  0  0  0  0  0  0  0  0  0  0  0
    2.1535    2.7929    1.7197 Cl  0  0  0  0  0  0  0  0  0  0  0  0
   -2.3077    0.0473   -0.2522 Au  0  0  0  0  0  0  0  0  0  0  0  0
   -0.7723    0.0299    6.3409 H   0  0  0  0  0  0  0  0  0  0  0  0
    2.3457    0.0727    6.3586 H   0  0  0  0  0  0  0  0  0  0  0  0
    0.1347    0.0677    8.5412 H   0  0  0  0  0  0  0  0  0  0  0  0
    4.1720    0.1293    8.1369 H   0  0  0  0  0  0  0  0  0  0  0  0
    5.0856    0.1767   10.7263 H   0  0  0  0  0  0  0  0  0  0  0  0
    2.7880    0.1562   12.2629 H   0  0  0  0  0  0  0  0  0  0  0  0
    2.6674   -2.0307    1.3407 H   0  0  0  0  0  0  0  0  0  0  0  0
    4.7038   -1.8752   -0.1094 H   0  0  0  0  0  0  0  0  0  0  0  0
    5.5943    0.3708   -0.7414 H   0  0  0  0  0  0  0  0  0  0  0  0
    4.4615    2.4392    0.0775 H   0  0  0  0  0  0  0  0  0  0  0  0
  1  2  1  0  0  0  0
  2 17  1  0  0  0  0
  2  3  2  0  0  0  0
  3  4  2  0  0  0  0
  4  5  2  0  0  0  0
  4  6  1  0  0  0  0
  6  7  2  0  0  0  0
  7 26  1  0  0  0  0
  7  8  1  0  0  0  0
  8  9  2  0  0  0  0
  9 28  1  0  0  0  0
  9 10  1  0  0  0  0
 10 14  1  0  0  0  0
 11 10  2  0  0  0  0
 11 12  1  0  0  0  0
 12 30  1  0  0  0  0
 12 13  2  0  0  0  0
 13 31  1  0  0  0  0
 14 13  1  0  0  0  0
 15 16  2  0  0  0  0
 15  6  1  0  0  0  0
 17 15  1  0  0  0  0
 18 17  1  0  0  0  0
 19 32  1  0  0  0  0
 19 18  2  0  0  0  0
 20 19  1  0  0  0  0
 21 20  2  0  0  0  0
 21 22  1  0  0  0  0
 22 23  2  0  0  0  0
 23 18  1  0  0  0  0
 23 24  1  0  0  0  0
 25  1  1  0  0  0  0
 27  8  1  0  0  0  0
 29 11  1  0  0  0  0
 33 20  1  0  0  0  0
 34 21  1  0  0  0  0
 35 22  1  0  0  0  0
M  END
