000-749-009.xyz
 OpenBabel07262113343D
CCOc1cc(ccc1O)/C=C\1/C(=NC(=NC1=O)S)O
 32 33  0  0  0  0  0  0  0  0999 V2000
    5.7483    0.0034    8.2567 C   0  0  0  0  0  0  0  0  0  0  0  0
    4.3479    0.0028    7.6832 C   0  0  0  0  0  0  0  0  0  0  0  0
    3.4221    0.0049    8.7707 O   0  0  0  0  0  0  0  0  0  0  0  0
    2.0902    0.0052    8.4917 C   0  0  0  0  0  0  0  0  0  0  0  0
    1.5302    0.0037    7.2291 C   0  0  0  0  0  0  0  0  0  0  0  0
    0.1172    0.0042    7.0776 C   0  0  0  0  0  0  0  0  0  0  0  0
   -0.5965    0.0029    5.8290 C   0  0  0  0  0  0  0  0  0  0  0  0
   -0.2779    0.0013    4.4816 C   0  0  0  0  0  0  0  0  0  0  0  0
   -1.3976    0.0006    3.5491 C   0  0  0  0  0  0  0  0  0  0  0  0
   -2.6374    0.0006    4.0500 O   0  0  0  0  0  0  0  0  0  0  0  0
   -1.2799   -0.0000    2.2540 N   0  0  0  0  0  0  0  0  0  0  0  0
    0.0000    0.0000    1.7630 C   0  0  0  0  0  0  0  0  0  0  0  0
    0.0000    0.0000    0.0000 S   0  0  0  0  0  0  0  0  0  0  0  0
    1.1106    0.0000    2.4436 N   0  0  0  0  0  0  0  0  0  0  0  0
    1.0735    0.0002    3.8288 C   0  0  0  0  0  0  0  0  0  0  0  0
    2.1250   -0.0004    4.4594 O   0  0  0  0  0  0  0  0  0  0  0  0
   -0.6838    0.0062    8.2496 C   0  0  0  0  0  0  0  0  0  0  0  0
   -0.1189    0.0077    9.5177 C   0  0  0  0  0  0  0  0  0  0  0  0
    1.2733    0.0073    9.6528 C   0  0  0  0  0  0  0  0  0  0  0  0
    1.8509    0.0086   10.8612 O   0  0  0  0  0  0  0  0  0  0  0  0
    5.9170   -0.8887    8.8794 H   0  0  0  0  0  0  0  0  0  0  0  0
    5.9175    0.8975    8.8763 H   0  0  0  0  0  0  0  0  0  0  0  0
    6.4878    0.0017    7.4418 H   0  0  0  0  0  0  0  0  0  0  0  0
    4.1687   -0.8865    7.0542 H   0  0  0  0  0  0  0  0  0  0  0  0
    4.1693    0.8902    7.0513 H   0  0  0  0  0  0  0  0  0  0  0  0
    2.1336    0.0020    6.3237 H   0  0  0  0  0  0  0  0  0  0  0  0
   -1.6772    0.0034    5.9940 H   0  0  0  0  0  0  0  0  0  0  0  0
   -3.2337    0.0003    3.2814 H   0  0  0  0  0  0  0  0  0  0  0  0
    2.2835    0.0005   -0.3499 Au  0  0  0  0  0  0  0  0  0  0  0  0
   -1.7715    0.0066    8.1498 H   0  0  0  0  0  0  0  0  0  0  0  0
   -0.7323    0.0093   10.4199 H   0  0  0  0  0  0  0  0  0  0  0  0
    2.8134    0.0079   10.7143 H   0  0  0  0  0  0  0  0  0  0  0  0
  1 22  1  0  0  0  0
  1 21  1  0  0  0  0
  2  1  1  0  0  0  0
  2  3  1  0  0  0  0
  4  3  1  0  0  0  0
  4 19  2  0  0  0  0
  5  4  1  0  0  0  0
  6  5  2  0  0  0  0
  6 17  1  0  0  0  0
  7 27  1  0  0  0  0
  7  6  1  0  0  0  0
  8  7  2  0  0  0  0
  9 10  1  0  0  0  0
  9  8  1  0  0  0  0
 11  9  2  0  0  0  0
 12 11  2  0  0  0  0
 12 14  2  0  0  0  0
 13 12  1  0  0  0  0
 14 15  2  0  0  0  0
 15 16  2  0  0  0  0
 15  8  1  0  0  0  0
 17 18  2  0  0  0  0
 18 19  1  0  0  0  0
 18 31  1  0  0  0  0
 19 20  1  0  0  0  0
 23  1  1  0  0  0  0
 24  2  1  0  0  0  0
 25  2  1  0  0  0  0
 26  5  1  0  0  0  0
 28 10  1  0  0  0  0
 29 13  1  0  0  0  0
 30 17  1  0  0  0  0
 32 20  1  0  0  0  0
M  END
