000-852-141.xyz
 OpenBabel07262113383D
Brc1ccc(cc1)N1C(=NC(=O)/C(=C/c2cc(n(c2C)c2ccc3c(c2)OCO3)C)/C1=O)S
 51 55  0  0  0  0  0  0  0  0999 V2000
    2.9465    1.5644    9.4611 C   0  0  0  0  0  0  0  0  0  0  0  0
    1.7354    1.2806    8.6397 C   0  0  0  0  0  0  0  0  0  0  0  0
    1.5965    0.9827    7.3123 C   0  0  0  0  0  0  0  0  0  0  0  0
    0.1900    0.7871    7.0391 C   0  0  0  0  0  0  0  0  0  0  0  0
   -0.5324    0.4692    5.8564 C   0  0  0  0  0  0  0  0  0  0  0  0
   -0.2308    0.2457    4.5282 C   0  0  0  0  0  0  0  0  0  0  0  0
   -1.4063   -0.0572    3.6506 C   0  0  0  0  0  0  0  0  0  0  0  0
   -2.5187   -0.2690    4.0982 O   0  0  0  0  0  0  0  0  0  0  0  0
   -1.1844   -0.0249    2.2733 N   0  0  0  0  0  0  0  0  0  0  0  0
   -0.0000    0.0000    1.7833 C   0  0  0  0  0  0  0  0  0  0  0  0
    0.0000    0.0000    0.0000 S   0  0  0  0  0  0  0  0  0  0  0  0
    1.1680    0.0000    2.5418 N   0  0  0  0  0  0  0  0  0  0  0  0
    1.1119    0.2328    3.9558 C   0  0  0  0  0  0  0  0  0  0  0  0
    2.1641    0.3629    4.5557 O   0  0  0  0  0  0  0  0  0  0  0  0
    2.4550   -0.2825    1.9893 C   0  0  0  0  0  0  0  0  0  0  0  0
    2.7239   -1.5557    1.4836 C   0  0  0  0  0  0  0  0  0  0  0  0
    3.9525   -1.8289    0.8790 C   0  0  0  0  0  0  0  0  0  0  0  0
    4.9150   -0.8204    0.8027 C   0  0  0  0  0  0  0  0  0  0  0  0
    6.5846   -1.1737   -0.0399 Br  0  0  0  0  0  0  0  0  0  0  0  0
    4.6730    0.4489    1.3427 C   0  0  0  0  0  0  0  0  0  0  0  0
    3.4392    0.7136    1.9407 C   0  0  0  0  0  0  0  0  0  0  0  0
   -0.4884    0.9829    8.2684 C   0  0  0  0  0  0  0  0  0  0  0  0
   -1.9368    0.9216    8.6142 C   0  0  0  0  0  0  0  0  0  0  0  0
    0.4514    1.2764    9.2124 N   0  0  0  0  0  0  0  0  0  0  0  0
    0.1775    1.5483   10.5872 C   0  0  0  0  0  0  0  0  0  0  0  0
    0.1038    0.4933   11.4981 C   0  0  0  0  0  0  0  0  0  0  0  0
   -0.1625    0.7284   12.8607 C   0  0  0  0  0  0  0  0  0  0  0  0
   -0.3444    2.0434   13.2477 C   0  0  0  0  0  0  0  0  0  0  0  0
   -0.5944    2.5418   14.4911 O   0  0  0  0  0  0  0  0  0  0  0  0
   -0.7900    3.9466   14.3356 C   0  0  0  0  0  0  0  0  0  0  0  0
   -0.4678    4.2794   12.9854 O   0  0  0  0  0  0  0  0  0  0  0  0
   -0.2675    3.1003   12.3326 C   0  0  0  0  0  0  0  0  0  0  0  0
   -0.0073    2.8881   10.9925 C   0  0  0  0  0  0  0  0  0  0  0  0
    3.0602    0.8436   10.2880 H   0  0  0  0  0  0  0  0  0  0  0  0
    2.9126    2.5691    9.9148 H   0  0  0  0  0  0  0  0  0  0  0  0
    3.8416    1.5044    8.8275 H   0  0  0  0  0  0  0  0  0  0  0  0
    2.3880    0.8926    6.5786 H   0  0  0  0  0  0  0  0  0  0  0  0
   -1.6126    0.3749    6.0090 H   0  0  0  0  0  0  0  0  0  0  0  0
    1.9583    1.0025   -0.7140 Au  0  0  0  0  0  0  0  0  0  0  0  0
    1.9539   -2.3267    1.5340 H   0  0  0  0  0  0  0  0  0  0  0  0
    4.1574   -2.8169    0.4656 H   0  0  0  0  0  0  0  0  0  0  0  0
    5.4428    1.2203    1.2981 H   0  0  0  0  0  0  0  0  0  0  0  0
    3.2330    1.6935    2.3710 H   0  0  0  0  0  0  0  0  0  0  0  0
   -2.2882    1.8801    9.0302 H   0  0  0  0  0  0  0  0  0  0  0  0
   -2.5456    0.6891    7.7325 H   0  0  0  0  0  0  0  0  0  0  0  0
   -2.1331    0.1518    9.3782 H   0  0  0  0  0  0  0  0  0  0  0  0
    0.2568   -0.5250   11.1377 H   0  0  0  0  0  0  0  0  0  0  0  0
   -0.2210   -0.0867   13.5824 H   0  0  0  0  0  0  0  0  0  0  0  0
   -0.1230    4.4932   15.0220 H   0  0  0  0  0  0  0  0  0  0  0  0
   -1.8473    4.2002   14.5389 H   0  0  0  0  0  0  0  0  0  0  0  0
    0.0546    3.7075   10.2768 H   0  0  0  0  0  0  0  0  0  0  0  0
  1 35  1  0  0  0  0
  1 34  1  0  0  0  0
  2 24  1  0  0  0  0
  2  1  1  0  0  0  0
  3  2  2  0  0  0  0
  4  3  1  0  0  0  0
  4 22  2  0  0  0  0
  5 38  1  0  0  0  0
  5  4  1  0  0  0  0
  6  5  2  0  0  0  0
  7  8  2  0  0  0  0
  7  6  1  0  0  0  0
  9  7  2  0  0  0  0
 10  9  2  0  0  0  0
 10 12  1  0  0  0  0
 11 10  1  0  0  0  0
 12 13  1  0  0  0  0
 13  6  1  0  0  0  0
 13 14  2  0  0  0  0
 15 12  1  0  0  0  0
 16 40  1  0  0  0  0
 16 15  2  0  0  0  0
 17 16  1  0  0  0  0
 18 17  2  0  0  0  0
 18 20  1  0  0  0  0
 19 18  1  0  0  0  0
 20 21  2  0  0  0  0
 21 15  1  0  0  0  0
 21 43  1  0  0  0  0
 22 23  1  0  0  0  0
 22 24  1  0  0  0  0
 23 44  1  0  0  0  0
 23 46  1  0  0  0  0
 24 25  1  0  0  0  0
 25 33  2  0  0  0  0
 25 26  1  0  0  0  0
 26 27  2  0  0  0  0
 27 28  1  0  0  0  0
 27 48  1  0  0  0  0
 28 29  1  0  0  0  0
 30 29  1  0  0  0  0
 30 50  1  0  0  0  0
 30 49  1  0  0  0  0
 31 30  1  0  0  0  0
 32 31  1  0  0  0  0
 32 28  2  0  0  0  0
 33 32  1  0  0  0  0
 36  1  1  0  0  0  0
 37  3  1  0  0  0  0
 39 11  1  0  0  0  0
 41 17  1  0  0  0  0
 42 20  1  0  0  0  0
 45 23  1  0  0  0  0
 47 26  1  0  0  0  0
 51 33  1  0  0  0  0
M  END
