000-769-136.xyz
 OpenBabel07262113353D
O=C1N=C(S)N(C(=O)/C/1=C\Nc1ccc2c(c1)CCC2)c1cccc2c1cccc2
 49 53  0  0  1  0  0  0  0  0999 V2000
    0.0000    0.0000    0.0000 S   0  0  0  0  0  0  0  0  0  0  0  0
    0.0000    0.0000    1.7738 C   0  0  0  0  0  0  0  0  0  0  0  0
   -1.1018   -0.0034    2.4480 N   0  0  0  0  0  0  0  0  0  0  0  0
   -1.0946   -0.0122    3.8469 C   0  0  0  0  0  0  0  0  0  0  0  0
   -2.1371   -0.0206    4.4812 O   0  0  0  0  0  0  0  0  0  0  0  0
    0.2320   -0.0131    4.4974 C   0  0  1  0  0  0  0  0  0  0  0  0
    0.2829   -0.0246    5.8830 C   0  0  0  0  0  0  0  0  0  0  0  0
    1.4082   -0.0293    6.5963 N   0  0  0  0  0  0  0  0  0  0  0  0
    1.5462   -0.0417    7.9946 C   0  0  0  0  0  0  0  0  0  0  0  0
    2.8505   -0.0516    8.5179 C   0  0  0  0  0  0  0  0  0  0  0  0
    3.0629   -0.0584    9.8982 C   0  0  0  0  0  0  0  0  0  0  0  0
    1.9688   -0.0512   10.7619 C   0  0  0  0  0  0  0  0  0  0  0  0
    1.9274   -0.0734   12.2729 C   0  0  0  0  0  0  0  0  0  0  0  0
    0.4819    0.3776   12.5875 C   0  0  0  0  0  0  0  0  0  0  0  0
   -0.3492   -0.0580   11.3585 C   0  0  0  0  0  0  0  0  0  0  0  0
    0.6650   -0.0415   10.2369 C   0  0  0  0  0  0  0  0  0  0  0  0
    0.4410   -0.0385    8.8639 C   0  0  0  0  0  0  0  0  0  0  0  0
    1.4538   -0.0045    3.7250 C   0  0  0  0  0  0  0  0  0  0  0  0
    2.5935   -0.0081    4.1924 O   0  0  0  0  0  0  0  0  0  0  0  0
    1.2760   -0.0000    2.3258 N   0  0  0  0  0  0  0  0  0  0  0  0
    2.4476   -0.0466    1.4932 C   0  0  0  0  0  0  0  0  0  0  0  0
    3.0124    1.1286    1.0457 C   0  0  0  0  0  0  0  0  0  0  0  0
    4.1621    1.0967    0.2240 C   0  0  0  0  0  0  0  0  0  0  0  0
    4.7289   -0.1099   -0.1258 C   0  0  0  0  0  0  0  0  0  0  0  0
    4.1759   -1.3382    0.3289 C   0  0  0  0  0  0  0  0  0  0  0  0
    4.7452   -2.5946   -0.0175 C   0  0  0  0  0  0  0  0  0  0  0  0
    4.1892   -3.7711    0.4355 C   0  0  0  0  0  0  0  0  0  0  0  0
    3.0345   -3.7433    1.2568 C   0  0  0  0  0  0  0  0  0  0  0  0
    2.4565   -2.5432    1.6113 C   0  0  0  0  0  0  0  0  0  0  0  0
    3.0090   -1.3152    1.1610 C   0  0  0  0  0  0  0  0  0  0  0  0
   -2.3060   -0.0744   -0.2561 Au  0  0  0  0  0  0  0  0  0  0  0  0
   -0.6764   -0.0308    6.4064 H   0  0  0  0  0  0  0  0  0  0  0  0
    2.2584   -0.0248    6.0147 H   0  0  0  0  0  0  0  0  0  0  0  0
    3.7001   -0.0486    7.8305 H   0  0  0  0  0  0  0  0  0  0  0  0
    4.0840   -0.0637   10.2880 H   0  0  0  0  0  0  0  0  0  0  0  0
    2.1086   -1.1009   12.6403 H   0  0  0  0  0  0  0  0  0  0  0  0
    2.6917    0.5681   12.7388 H   0  0  0  0  0  0  0  0  0  0  0  0
    0.0982   -0.0306   13.5339 H   0  0  0  0  0  0  0  0  0  0  0  0
    0.4568    1.4767   12.6679 H   0  0  0  0  0  0  0  0  0  0  0  0
   -0.7414   -1.0835   11.4897 H   0  0  0  0  0  0  0  0  0  0  0  0
   -1.2178    0.5914   11.1684 H   0  0  0  0  0  0  0  0  0  0  0  0
   -0.5791   -0.0273    8.4775 H   0  0  0  0  0  0  0  0  0  0  0  0
    2.5562    2.0787    1.3278 H   0  0  0  0  0  0  0  0  0  0  0  0
    4.5962    2.0342   -0.1292 H   0  0  0  0  0  0  0  0  0  0  0  0
    5.6179   -0.1394   -0.7608 H   0  0  0  0  0  0  0  0  0  0  0  0
    5.6347   -2.6092   -0.6523 H   0  0  0  0  0  0  0  0  0  0  0  0
    4.6357   -4.7300    0.1623 H   0  0  0  0  0  0  0  0  0  0  0  0
    2.5996   -4.6812    1.6096 H   0  0  0  0  0  0  0  0  0  0  0  0
    1.5653   -2.5278    2.2401 H   0  0  0  0  0  0  0  0  0  0  0  0
  1  2  1  0  0  0  0
  2 20  1  0  0  0  0
  2  3  2  0  0  0  0
  3  4  2  0  0  0  0
  4  5  2  0  0  0  0
  4  6  1  0  0  0  0
  6  7  1  6  0  0  0
  7 32  1  0  0  0  0
  7  8  2  0  0  0  0
  8  9  1  0  0  0  0
  9 10  2  0  0  0  0
  9 17  1  0  0  0  0
 10 11  1  0  0  0  0
 11 35  1  0  0  0  0
 11 12  2  0  0  0  0
 12 13  1  0  0  0  0
 13 14  1  0  0  0  0
 13 36  1  0  0  0  0
 13 37  1  0  0  0  0
 14 39  1  0  0  0  0
 14 38  1  0  0  0  0
 15 40  1  0  0  0  0
 15 14  1  0  0  0  0
 16 12  1  0  0  0  0
 16 15  1  0  0  0  0
 17 16  2  0  0  0  0
 18 19  2  0  0  0  0
 18  6  1  0  0  0  0
 20 18  1  0  0  0  0
 21 20  1  0  0  0  0
 22 43  1  0  0  0  0
 22 21  2  0  0  0  0
 23 22  1  0  0  0  0
 24 23  2  0  0  0  0
 24 25  1  0  0  0  0
 25 30  1  0  0  0  0
 26 25  2  0  0  0  0
 26 27  1  0  0  0  0
 27 28  2  0  0  0  0
 28 48  1  0  0  0  0
 28 29  1  0  0  0  0
 29 49  1  0  0  0  0
 30 21  1  0  0  0  0
 30 29  2  0  0  0  0
 31  1  1  0  0  0  0
 33  8  1  0  0  0  0
 34 10  1  0  0  0  0
 41 15  1  0  0  0  0
 42 17  1  0  0  0  0
 44 23  1  0  0  0  0
 45 24  1  0  0  0  0
 46 26  1  0  0  0  0
 47 27  1  0  0  0  0
M  RAD  1   6   2
M  END
