000-823-384.xyz
 OpenBabel07262113373D
O=C1N=C(S)N(C(=O)C1=Cc1c(=O)oc2c(c1C)cc1c3c2CCCN3CCC1)c1ccccc1C
 61 66  0  0  0  0  0  0  0  0999 V2000
   -2.6609    2.4270    1.5720 C   0  0  0  0  0  0  0  0  0  0  0  0
   -3.1256    1.0751    1.1075 C   0  0  0  0  0  0  0  0  0  0  0  0
   -4.2487    0.9229    0.2843 C   0  0  0  0  0  0  0  0  0  0  0  0
   -4.6786   -0.3383   -0.1357 C   0  0  0  0  0  0  0  0  0  0  0  0
   -3.9903   -1.4858    0.2646 C   0  0  0  0  0  0  0  0  0  0  0  0
   -2.8704   -1.3597    1.0858 C   0  0  0  0  0  0  0  0  0  0  0  0
   -2.4439   -0.0935    1.4916 C   0  0  0  0  0  0  0  0  0  0  0  0
   -1.2742    0.0090    2.3275 N   0  0  0  0  0  0  0  0  0  0  0  0
    0.0000    0.0000    1.7722 C   0  0  0  0  0  0  0  0  0  0  0  0
    0.0000    0.0000    0.0000 S   0  0  0  0  0  0  0  0  0  0  0  0
    1.1027   -0.0000    2.4436 N   0  0  0  0  0  0  0  0  0  0  0  0
    1.0980    0.0468    3.8363 C   0  0  0  0  0  0  0  0  0  0  0  0
    2.1110   -0.1738    4.4719 O   0  0  0  0  0  0  0  0  0  0  0  0
   -0.2102    0.3415    4.4932 C   0  0  0  0  0  0  0  0  0  0  0  0
   -0.3499    0.6162    5.8184 C   0  0  0  0  0  0  0  0  0  0  0  0
    0.6923    0.9185    6.7831 C   0  0  0  0  0  0  0  0  0  0  0  0
    0.6525    0.4384    8.0792 C   0  0  0  0  0  0  0  0  0  0  0  0
   -0.4552   -0.4558    8.5627 C   0  0  0  0  0  0  0  0  0  0  0  0
    1.7394    0.7318    8.9765 C   0  0  0  0  0  0  0  0  0  0  0  0
    1.8506    0.2289   10.2911 C   0  0  0  0  0  0  0  0  0  0  0  0
    2.9410    0.4897   11.1007 C   0  0  0  0  0  0  0  0  0  0  0  0
    3.0304   -0.1084   12.4870 C   0  0  0  0  0  0  0  0  0  0  0  0
    3.9300    0.7294   13.3898 C   0  0  0  0  0  0  0  0  0  0  0  0
    5.2657    0.9630   12.6984 C   0  0  0  0  0  0  0  0  0  0  0  0
    5.0902    1.6058   11.4066 N   0  0  0  0  0  0  0  0  0  0  0  0
    6.2637    2.2520   10.8392 C   0  0  0  0  0  0  0  0  0  0  0  0
    5.8670    3.3191    9.8287 C   0  0  0  0  0  0  0  0  0  0  0  0
    5.0220    2.7017    8.7192 C   0  0  0  0  0  0  0  0  0  0  0  0
    3.9259    1.8337    9.2900 C   0  0  0  0  0  0  0  0  0  0  0  0
    4.0050    1.3095   10.6050 C   0  0  0  0  0  0  0  0  0  0  0  0
    2.8062    1.5311    8.5137 C   0  0  0  0  0  0  0  0  0  0  0  0
    2.7786    2.0627    7.2673 O   0  0  0  0  0  0  0  0  0  0  0  0
    1.7497    1.8620    6.3642 C   0  0  0  0  0  0  0  0  0  0  0  0
    1.7710    2.5069    5.3522 O   0  0  0  0  0  0  0  0  0  0  0  0
   -1.4612    0.2094    3.7120 C   0  0  0  0  0  0  0  0  0  0  0  0
   -2.5848    0.2832    4.1704 O   0  0  0  0  0  0  0  0  0  0  0  0
   -2.7949    2.5266    2.6610 H   0  0  0  0  0  0  0  0  0  0  0  0
   -1.5919    2.5778    1.3542 H   0  0  0  0  0  0  0  0  0  0  0  0
   -3.2279    3.2297    1.0807 H   0  0  0  0  0  0  0  0  0  0  0  0
   -4.7944    1.8150   -0.0329 H   0  0  0  0  0  0  0  0  0  0  0  0
   -5.5573   -0.4239   -0.7793 H   0  0  0  0  0  0  0  0  0  0  0  0
   -4.3233   -2.4741   -0.0588 H   0  0  0  0  0  0  0  0  0  0  0  0
   -2.3107   -2.2371    1.4145 H   0  0  0  0  0  0  0  0  0  0  0  0
    2.3073    0.0852   -0.2522 Au  0  0  0  0  0  0  0  0  0  0  0  0
   -1.3860    0.6182    6.1724 H   0  0  0  0  0  0  0  0  0  0  0  0
   -1.2845   -0.5259    7.8505 H   0  0  0  0  0  0  0  0  0  0  0  0
   -0.0762   -1.4781    8.7271 H   0  0  0  0  0  0  0  0  0  0  0  0
   -0.8521   -0.0997    9.5256 H   0  0  0  0  0  0  0  0  0  0  0  0
    1.0558   -0.4031   10.6905 H   0  0  0  0  0  0  0  0  0  0  0  0
    2.0220   -0.2079   12.9179 H   0  0  0  0  0  0  0  0  0  0  0  0
    3.4411   -1.1332   12.4224 H   0  0  0  0  0  0  0  0  0  0  0  0
    4.0970    0.2304   14.3567 H   0  0  0  0  0  0  0  0  0  0  0  0
    3.4562    1.7037   13.5969 H   0  0  0  0  0  0  0  0  0  0  0  0
    5.8053   -0.0017   12.5887 H   0  0  0  0  0  0  0  0  0  0  0  0
    5.9084    1.6133   13.3129 H   0  0  0  0  0  0  0  0  0  0  0  0
    6.9289    1.5038   10.3589 H   0  0  0  0  0  0  0  0  0  0  0  0
    6.8352    2.6973   11.6684 H   0  0  0  0  0  0  0  0  0  0  0  0
    5.2922    4.1034   10.3492 H   0  0  0  0  0  0  0  0  0  0  0  0
    6.7700    3.7935    9.4154 H   0  0  0  0  0  0  0  0  0  0  0  0
    4.5810    3.4771    8.0768 H   0  0  0  0  0  0  0  0  0  0  0  0
    5.6606    2.0950    8.0518 H   0  0  0  0  0  0  0  0  0  0  0  0
  1 37  1  0  0  0  0
  2  7  1  0  0  0  0
  2  1  1  0  0  0  0
  3  2  2  0  0  0  0
  4  5  2  0  0  0  0
  4  3  1  0  0  0  0
  5  6  1  0  0  0  0
  6 43  1  0  0  0  0
  6  7  2  0  0  0  0
  7  8  1  0  0  0  0
  8 35  1  0  0  0  0
  9  8  1  0  0  0  0
  9 11  2  0  0  0  0
 10  9  1  0  0  0  0
 11 12  2  0  0  0  0
 12 13  2  0  0  0  0
 12 14  1  0  0  0  0
 14 15  2  0  0  0  0
 15 45  1  0  0  0  0
 15 16  1  0  0  0  0
 16 17  2  0  0  0  0
 17 18  1  0  0  0  0
 17 19  1  0  0  0  0
 18 47  1  0  0  0  0
 18 48  1  0  0  0  0
 19 20  1  0  0  0  0
 20 49  1  0  0  0  0
 20 21  2  0  0  0  0
 21 22  1  0  0  0  0
 22 50  1  0  0  0  0
 22 23  1  0  0  0  0
 23 53  1  0  0  0  0
 23 52  1  0  0  0  0
 24 55  1  0  0  0  0
 24 23  1  0  0  0  0
 25 24  1  0  0  0  0
 26 25  1  0  0  0  0
 26 57  1  0  0  0  0
 27 58  1  0  0  0  0
 27 26  1  0  0  0  0
 28 29  1  0  0  0  0
 28 27  1  0  0  0  0
 29 30  2  0  0  0  0
 30 21  1  0  0  0  0
 30 25  1  0  0  0  0
 31 19  2  0  0  0  0
 31 29  1  0  0  0  0
 32 31  1  0  0  0  0
 33 16  1  0  0  0  0
 33 32  1  0  0  0  0
 34 33  2  0  0  0  0
 35 36  2  0  0  0  0
 35 14  1  0  0  0  0
 38  1  1  0  0  0  0
 39  1  1  0  0  0  0
 40  3  1  0  0  0  0
 41  4  1  0  0  0  0
 42  5  1  0  0  0  0
 44 10  1  0  0  0  0
 46 18  1  0  0  0  0
 51 22  1  0  0  0  0
 54 24  1  0  0  0  0
 56 26  1  0  0  0  0
 59 27  1  0  0  0  0
 60 28  1  0  0  0  0
 61 28  1  0  0  0  0
M  END
