000-713-017.xyz
 OpenBabel07262113333D
SC1=NC(=O)/C(=C/c2c(F)cccc2Cl)/S1
 21 22  0  0  0  0  0  0  0  0999 V2000
    1.3979    2.0329    7.3341 F   0  0  0  0  0  0  0  0  0  0  0  0
    2.4602    1.2880    7.0043 C   0  0  0  0  0  0  0  0  0  0  0  0
    3.6717    1.5416    7.6312 C   0  0  0  0  0  0  0  0  0  0  0  0
    4.7782    0.7632    7.2844 C   0  0  0  0  0  0  0  0  0  0  0  0
    4.6549   -0.2535    6.3383 C   0  0  0  0  0  0  0  0  0  0  0  0
    3.4214   -0.4854    5.7226 C   0  0  0  0  0  0  0  0  0  0  0  0
    3.3062   -1.8393    4.6296 Cl  0  0  0  0  0  0  0  0  0  0  0  0
    2.2831    0.2962    6.0170 C   0  0  0  0  0  0  0  0  0  0  0  0
    0.9460    0.1557    5.4360 C   0  0  0  0  0  0  0  0  0  0  0  0
    0.5668    0.0263    4.1500 C   0  0  0  0  0  0  0  0  0  0  0  0
    1.5330   -0.0000    2.6815 S   0  0  0  0  0  0  0  0  0  0  0  0
    0.0000    0.0000    1.7442 C   0  0  0  0  0  0  0  0  0  0  0  0
    0.0000    0.0000    0.0000 S   0  0  0  0  0  0  0  0  0  0  0  0
   -1.1076   -0.0136    2.3910 N   0  0  0  0  0  0  0  0  0  0  0  0
   -0.9161   -0.0062    3.7836 C   0  0  0  0  0  0  0  0  0  0  0  0
   -1.7981   -0.0117    4.6046 O   0  0  0  0  0  0  0  0  0  0  0  0
    3.7296    2.3394    8.3726 H   0  0  0  0  0  0  0  0  0  0  0  0
    5.7424    0.9430    7.7641 H   0  0  0  0  0  0  0  0  0  0  0  0
    5.5031   -0.8878    6.0802 H   0  0  0  0  0  0  0  0  0  0  0  0
    0.1042    0.2624    6.1291 H   0  0  0  0  0  0  0  0  0  0  0  0
    2.2538   -0.0186   -0.5028 Au  0  0  0  0  0  0  0  0  0  0  0  0
  2  1  1  0  0  0  0
  2  3  2  0  0  0  0
  3 17  1  0  0  0  0
  4  3  1  0  0  0  0
  4 18  1  0  0  0  0
  5  4  2  0  0  0  0
  6  8  2  0  0  0  0
  6  5  1  0  0  0  0
  7  6  1  0  0  0  0
  8  2  1  0  0  0  0
  9  8  1  0  0  0  0
  9 20  1  0  0  0  0
 10  9  2  0  0  0  0
 11 10  1  0  0  0  0
 12 14  2  0  0  0  0
 12 11  1  0  0  0  0
 13 12  1  0  0  0  0
 14 15  2  0  0  0  0
 15 10  1  0  0  0  0
 15 16  2  0  0  0  0
 19  5  1  0  0  0  0
 21 13  1  0  0  0  0
M  END
