000-784-788.xyz
 OpenBabel07262113363D
CSc1ccc(cc1)C1NC(=NC2=C1CCc1c2cccc1)S
 41 44  0  0  1  0  0  0  0  0999 V2000
   -2.4697    7.1977    3.7681 C   0  0  0  0  0  0  0  0  0  0  0  0
   -3.6685    6.0531    4.5045 S   0  0  0  0  0  0  0  0  0  0  0  0
   -2.9092    4.4677    4.2812 C   0  0  0  0  0  0  0  0  0  0  0  0
   -3.6197    3.3550    4.7663 C   0  0  0  0  0  0  0  0  0  0  0  0
   -3.0958    2.0709    4.6302 C   0  0  0  0  0  0  0  0  0  0  0  0
   -1.8559    1.8584    4.0158 C   0  0  0  0  0  0  0  0  0  0  0  0
   -1.1498    2.9694    3.5384 C   0  0  0  0  0  0  0  0  0  0  0  0
   -1.6646    4.2596    3.6622 C   0  0  0  0  0  0  0  0  0  0  0  0
   -1.2735    0.4580    3.8575 C   0  0  1  0  0  0  0  0  0  0  0  0
   -1.1892    0.0692    2.4451 N   0  0  0  0  0  0  0  0  0  0  0  0
    0.0000    0.0000    1.7795 C   0  0  0  0  0  0  0  0  0  0  0  0
    0.0000    0.0000    0.0000 S   0  0  0  0  0  0  0  0  0  0  0  0
    1.1605    0.0000    2.3362 N   0  0  0  0  0  0  0  0  0  0  0  0
    1.2059    0.1694    3.7231 C   0  0  0  0  0  0  0  0  0  0  0  0
    0.0956    0.3526    4.4859 C   0  0  2  0  0  0  0  0  0  0  0  0
    0.1878    0.4419    5.9845 C   0  0  0  0  0  0  0  0  0  0  0  0
    1.5119    1.0683    6.4239 C   0  0  0  0  0  0  0  0  0  0  0  0
    2.6949    0.4634    5.7040 C   0  0  0  0  0  0  0  0  0  0  0  0
    3.9490    0.3428    6.3068 C   0  0  0  0  0  0  0  0  0  0  0  0
    5.0444   -0.1527    5.5916 C   0  0  0  0  0  0  0  0  0  0  0  0
    4.8898   -0.5263    4.2541 C   0  0  0  0  0  0  0  0  0  0  0  0
    3.6421   -0.4123    3.6388 C   0  0  0  0  0  0  0  0  0  0  0  0
    2.5381    0.0701    4.3561 C   0  0  0  0  0  0  0  0  0  0  0  0
   -2.3233    6.9983    2.6964 H   0  0  0  0  0  0  0  0  0  0  0  0
   -2.9061    8.1990    3.8870 H   0  0  0  0  0  0  0  0  0  0  0  0
   -1.5034    7.1662    4.2924 H   0  0  0  0  0  0  0  0  0  0  0  0
   -4.5878    3.5012    5.2520 H   0  0  0  0  0  0  0  0  0  0  0  0
   -3.6617    1.2162    5.0124 H   0  0  0  0  0  0  0  0  0  0  0  0
   -0.1754    2.8235    3.0651 H   0  0  0  0  0  0  0  0  0  0  0  0
   -1.0855    5.0981    3.2765 H   0  0  0  0  0  0  0  0  0  0  0  0
   -1.9608   -0.2416    4.3720 H   0  0  0  0  0  0  0  0  0  0  0  0
   -2.0177    0.2283    1.8849 H   0  0  0  0  0  0  0  0  0  0  0  0
   -1.8176   -1.3161   -0.5442 Au  0  0  0  0  0  0  0  0  0  0  0  0
    0.0881   -0.5765    6.4120 H   0  0  0  0  0  0  0  0  0  0  0  0
   -0.6568    1.0266    6.3823 H   0  0  0  0  0  0  0  0  0  0  0  0
    1.4788    2.1494    6.1892 H   0  0  0  0  0  0  0  0  0  0  0  0
    1.6408    0.9867    7.5141 H   0  0  0  0  0  0  0  0  0  0  0  0
    4.0716    0.6463    7.3505 H   0  0  0  0  0  0  0  0  0  0  0  0
    6.0180   -0.2434    6.0798 H   0  0  0  0  0  0  0  0  0  0  0  0
    5.7433   -0.9085    3.6888 H   0  0  0  0  0  0  0  0  0  0  0  0
    3.4945   -0.6934    2.5955 H   0  0  0  0  0  0  0  0  0  0  0  0
  1 25  1  0  0  0  0
  1 26  1  0  0  0  0
  1  2  1  0  0  0  0
  3  2  1  0  0  0  0
  3  4  2  0  0  0  0
  4 27  1  0  0  0  0
  5  4  1  0  0  0  0
  5 28  1  0  0  0  0
  6  5  2  0  0  0  0
  7  8  2  0  0  0  0
  7  6  1  0  0  0  0
  8  3  1  0  0  0  0
  9  6  1  0  0  0  0
  9 31  1  1  0  0  0
 10  9  1  0  0  0  0
 11 13  2  0  0  0  0
 11 10  1  0  0  0  0
 12 11  1  0  0  0  0
 13 14  2  0  0  0  0
 14 23  1  0  0  0  0
 14 15  1  0  0  0  0
 15  9  1  1  0  0  0
 15 16  1  0  0  0  0
 16 35  1  0  0  0  0
 16 34  1  0  0  0  0
 16 17  1  0  0  0  0
 17 37  1  0  0  0  0
 18 19  1  0  0  0  0
 18 17  1  0  0  0  0
 19 38  1  0  0  0  0
 20 39  1  0  0  0  0
 20 19  2  0  0  0  0
 21 20  1  0  0  0  0
 22 21  2  0  0  0  0
 22 23  1  0  0  0  0
 23 18  2  0  0  0  0
 24  1  1  0  0  0  0
 29  7  1  0  0  0  0
 30  8  1  0  0  0  0
 32 10  1  0  0  0  0
 33 12  1  0  0  0  0
 36 17  1  0  0  0  0
 40 21  1  0  0  0  0
 41 22  1  0  0  0  0
M  RAD  1  15   2
M  END
