000-747-932.xyz
 OpenBabel07262113343D
SC1=NC(=O)/C(=C/c2[nH]ccc2)/C(=N1)O
 22 23  0  0  0  0  0  0  0  0999 V2000
    2.4026   -0.0509    4.2960 O   0  0  0  0  0  0  0  0  0  0  0  0
    1.2174   -0.1352    3.6839 C   0  0  0  0  0  0  0  0  0  0  0  0
    1.2270   -0.0000    2.3958 N   0  0  0  0  0  0  0  0  0  0  0  0
   -0.0000    0.0000    1.7623 C   0  0  0  0  0  0  0  0  0  0  0  0
    0.0000    0.0000    0.0000 S   0  0  0  0  0  0  0  0  0  0  0  0
   -1.1839    0.0240    2.2955 N   0  0  0  0  0  0  0  0  0  0  0  0
   -1.2996   -0.0590    3.6704 C   0  0  0  0  0  0  0  0  0  0  0  0
   -2.3689    0.0185    4.2493 O   0  0  0  0  0  0  0  0  0  0  0  0
   -0.0172   -0.3035    4.4426 C   0  0  0  0  0  0  0  0  0  0  0  0
   -0.1614   -0.6070    5.7679 C   0  0  0  0  0  0  0  0  0  0  0  0
    0.7542   -1.0318    6.7837 C   0  0  0  0  0  0  0  0  0  0  0  0
    2.0317   -1.6267    6.7876 C   0  0  0  0  0  0  0  0  0  0  0  0
    2.3832   -1.8942    8.1275 C   0  0  0  0  0  0  0  0  0  0  0  0
    1.3263   -1.4667    8.9257 C   0  0  0  0  0  0  0  0  0  0  0  0
    0.3591   -0.9702    8.1126 N   0  0  0  0  0  0  0  0  0  0  0  0
    2.2908   -0.0504    5.2603 H   0  0  0  0  0  0  0  0  0  0  0  0
    2.2558    0.0278   -0.4743 Au  0  0  0  0  0  0  0  0  0  0  0  0
   -1.2075   -0.5143    6.0906 H   0  0  0  0  0  0  0  0  0  0  0  0
    2.6111   -1.8975    5.9087 H   0  0  0  0  0  0  0  0  0  0  0  0
    3.2989   -2.3635    8.4794 H   0  0  0  0  0  0  0  0  0  0  0  0
    1.2062   -1.4847   10.0066 H   0  0  0  0  0  0  0  0  0  0  0  0
   -0.5198   -0.5715    8.4210 H   0  0  0  0  0  0  0  0  0  0  0  0
  1 16  1  0  0  0  0
  2  1  1  0  0  0  0
  2  9  1  0  0  0  0
  3  2  2  0  0  0  0
  4  6  2  0  0  0  0
  4  3  2  0  0  0  0
  5  4  1  0  0  0  0
  6  7  2  0  0  0  0
  7  8  2  0  0  0  0
  7  9  1  0  0  0  0
  9 10  2  0  0  0  0
 10 18  1  0  0  0  0
 10 11  1  0  0  0  0
 11 12  2  0  0  0  0
 11 15  1  0  0  0  0
 12 13  1  0  0  0  0
 13 20  1  0  0  0  0
 13 14  2  0  0  0  0
 14 21  1  0  0  0  0
 15 22  1  0  0  0  0
 15 14  1  0  0  0  0
 17  5  1  0  0  0  0
 19 12  1  0  0  0  0
M  END
