000-694-871.xyz
 OpenBabel07262113333D
CN/C(=N/N=C\C(c1ccccc1)C)/S
 30 31  0  0  1  0  0  0  0  0999 V2000
   -1.5028    0.0065    3.7348 C   0  0  0  0  0  0  0  0  0  0  0  0
   -1.2471    0.0009    2.3107 N   0  0  0  0  0  0  0  0  0  0  0  0
   -0.0000    0.0000    1.7764 C   0  0  0  0  0  0  0  0  0  0  0  0
    0.0000    0.0000    0.0000 S   0  0  0  0  0  0  0  0  0  0  0  0
    0.9931    0.0000    2.6409 N   0  0  0  0  0  0  0  0  0  0  0  0
    2.2722   -0.0019    2.2115 N   0  0  0  0  0  0  0  0  0  0  0  0
    3.2144   -0.0280    3.0888 C   0  0  0  0  0  0  0  0  0  0  0  0
    3.0411   -0.0711    4.5886 C   0  0  1  0  0  0  0  0  0  0  0  0
    3.9709   -1.1274    5.1914 C   0  0  0  0  0  0  0  0  0  0  0  0
    3.2289    1.3404    5.1435 C   0  0  0  0  0  0  0  0  0  0  0  0
    4.2979    1.6962    5.9756 C   0  0  0  0  0  0  0  0  0  0  0  0
    4.4328    3.0080    6.4449 C   0  0  0  0  0  0  0  0  0  0  0  0
    3.5023    3.9838    6.0865 C   0  0  0  0  0  0  0  0  0  0  0  0
    2.4326    3.6397    5.2522 C   0  0  0  0  0  0  0  0  0  0  0  0
    2.2991    2.3332    4.7847 C   0  0  0  0  0  0  0  0  0  0  0  0
   -2.5892   -0.0220    3.8962 H   0  0  0  0  0  0  0  0  0  0  0  0
   -1.0930    0.9089    4.2176 H   0  0  0  0  0  0  0  0  0  0  0  0
   -1.0433   -0.8657    4.2274 H   0  0  0  0  0  0  0  0  0  0  0  0
   -2.0218    0.0124    1.6607 H   0  0  0  0  0  0  0  0  0  0  0  0
    2.3735    0.0374   -0.1724 Au  0  0  0  0  0  0  0  0  0  0  0  0
    4.2369   -0.0001    2.6958 H   0  0  0  0  0  0  0  0  0  0  0  0
    1.9967   -0.3613    4.7733 H   0  0  0  0  0  0  0  0  0  0  0  0
    3.8687   -1.1652    6.2865 H   0  0  0  0  0  0  0  0  0  0  0  0
    3.7273   -2.1230    4.7911 H   0  0  0  0  0  0  0  0  0  0  0  0
    5.0284   -0.9238    4.9571 H   0  0  0  0  0  0  0  0  0  0  0  0
    5.0376    0.9508    6.2709 H   0  0  0  0  0  0  0  0  0  0  0  0
    5.2728    3.2646    7.0953 H   0  0  0  0  0  0  0  0  0  0  0  0
    3.6082    5.0075    6.4535 H   0  0  0  0  0  0  0  0  0  0  0  0
    1.6981    4.3960    4.9640 H   0  0  0  0  0  0  0  0  0  0  0  0
    1.4682    2.0634    4.1285 H   0  0  0  0  0  0  0  0  0  0  0  0
  1 16  1  0  0  0  0
  1 17  1  0  0  0  0
  1 18  1  0  0  0  0
  2  1  1  0  0  0  0
  3  2  1  0  0  0  0
  3  5  2  0  0  0  0
  4  3  1  0  0  0  0
  6  5  1  0  0  0  0
  6  7  1  0  0  0  0
  7  8  1  0  0  0  0
  8 22  1  1  0  0  0
  8 10  1  0  0  0  0
  8  9  1  0  0  0  0
  9 23  1  0  0  0  0
 10 11  1  0  0  0  0
 11 26  1  0  0  0  0
 11 12  2  0  0  0  0
 12 27  1  0  0  0  0
 13 12  1  0  0  0  0
 13 28  1  0  0  0  0
 14 13  2  0  0  0  0
 15 10  2  0  0  0  0
 15 14  1  0  0  0  0
 19  2  1  0  0  0  0
 20  4  1  0  0  0  0
 20  6  1  0  0  0  0
 21  7  1  0  0  0  0
 24  9  1  0  0  0  0
 25  9  1  0  0  0  0
 29 14  1  0  0  0  0
 30 15  1  0  0  0  0
M  RAD  1   7   2
M  END
