000-788-693.xyz
 OpenBabel07262113363D
SC1=NC(=O)/C(=C/c2ccc(o2)c2ccc(cc2)S(=O)(=O)N)/C(=N1)O
 36 38  0  0  0  0  0  0  0  0999 V2000
   -9.9474    0.2209    6.9606 N   0  0  0  0  0  0  0  0  0  0  0  0
   -9.3629   -1.3274    7.1775 S   0  0  0  0  0  0  0  0  0  0  0  0
   -9.8542   -1.7604    8.4820 O   0  0  0  0  0  0  0  0  0  0  0  0
   -9.6390   -2.0355    5.9321 O   0  0  0  0  0  0  0  0  0  0  0  0
   -7.5771   -1.1735    7.3135 C   0  0  0  0  0  0  0  0  0  0  0  0
   -6.7947   -1.1988    6.1562 C   0  0  0  0  0  0  0  0  0  0  0  0
   -5.4141   -1.0569    6.2621 C   0  0  0  0  0  0  0  0  0  0  0  0
   -4.8085   -0.8980    7.5258 C   0  0  0  0  0  0  0  0  0  0  0  0
   -5.6166   -0.8953    8.6805 C   0  0  0  0  0  0  0  0  0  0  0  0
   -6.9963   -1.0360    8.5779 C   0  0  0  0  0  0  0  0  0  0  0  0
   -3.3672   -0.7604    7.6460 C   0  0  0  0  0  0  0  0  0  0  0  0
   -2.4863   -0.8060    8.7098 C   0  0  0  0  0  0  0  0  0  0  0  0
   -1.1843   -0.6363    8.1771 C   0  0  0  0  0  0  0  0  0  0  0  0
   -1.3159   -0.4883    6.8060 C   0  0  0  0  0  0  0  0  0  0  0  0
   -0.3269   -0.2968    5.8038 C   0  0  0  0  0  0  0  0  0  0  0  0
   -0.3396   -0.1318    4.4442 C   0  0  0  0  0  0  0  0  0  0  0  0
   -1.4704   -0.0395    3.5108 C   0  0  0  0  0  0  0  0  0  0  0  0
   -2.7327    0.0306    3.9212 O   0  0  0  0  0  0  0  0  0  0  0  0
   -1.2892    0.0145    2.2280 N   0  0  0  0  0  0  0  0  0  0  0  0
    0.0000   -0.0000    1.7581 C   0  0  0  0  0  0  0  0  0  0  0  0
    0.0000    0.0000    0.0000 S   0  0  0  0  0  0  0  0  0  0  0  0
    1.1143   -0.0000    2.4369 N   0  0  0  0  0  0  0  0  0  0  0  0
    1.0452   -0.0335    3.8130 C   0  0  0  0  0  0  0  0  0  0  0  0
    2.0409   -0.0080    4.5166 O   0  0  0  0  0  0  0  0  0  0  0  0
   -2.6546   -0.5659    6.4991 O   0  0  0  0  0  0  0  0  0  0  0  0
   -9.6927    0.6432    6.0703 H   0  0  0  0  0  0  0  0  0  0  0  0
   -9.8272    0.8302    7.7667 H   0  0  0  0  0  0  0  0  0  0  0  0
   -7.2688   -1.3515    5.1852 H   0  0  0  0  0  0  0  0  0  0  0  0
   -4.8007   -1.0903    5.3609 H   0  0  0  0  0  0  0  0  0  0  0  0
   -5.1607   -0.7796    9.6653 H   0  0  0  0  0  0  0  0  0  0  0  0
   -7.6302   -1.0550    9.4658 H   0  0  0  0  0  0  0  0  0  0  0  0
   -2.7504   -0.9656    9.7518 H   0  0  0  0  0  0  0  0  0  0  0  0
   -0.2425   -0.6278    8.7209 H   0  0  0  0  0  0  0  0  0  0  0  0
    0.6931   -0.2926    6.2072 H   0  0  0  0  0  0  0  0  0  0  0  0
   -2.8070   -0.0331    4.8888 H   0  0  0  0  0  0  0  0  0  0  0  0
    2.2790   -0.0321   -0.3716 Au  0  0  0  0  0  0  0  0  0  0  0  0
  1  2  1  0  0  0  0
  1 27  1  0  0  0  0
  2  5  1  0  0  0  0
  2  3  2  0  0  0  0
  4  2  2  0  0  0  0
  5 10  2  0  0  0  0
  6  7  2  0  0  0  0
  6  5  1  0  0  0  0
  7  8  1  0  0  0  0
  8 11  1  0  0  0  0
  8  9  2  0  0  0  0
  9 30  1  0  0  0  0
 10  9  1  0  0  0  0
 10 31  1  0  0  0  0
 11 12  2  0  0  0  0
 12 32  1  0  0  0  0
 13 12  1  0  0  0  0
 13 33  1  0  0  0  0
 14 13  2  0  0  0  0
 15 34  1  0  0  0  0
 15 14  1  0  0  0  0
 16 15  2  0  0  0  0
 17 18  1  0  0  0  0
 17 16  1  0  0  0  0
 18 35  1  0  0  0  0
 19 17  2  0  0  0  0
 20 19  2  0  0  0  0
 20 22  2  0  0  0  0
 21 20  1  0  0  0  0
 22 23  2  0  0  0  0
 23 16  1  0  0  0  0
 23 24  2  0  0  0  0
 25 14  1  0  0  0  0
 25 11  1  0  0  0  0
 26  1  1  0  0  0  0
 28  6  1  0  0  0  0
 29  7  1  0  0  0  0
 36 21  1  0  0  0  0
M  END
