000-701-036.xyz
 OpenBabel07262113333D
SC1=NC(=O)/C(=C/2\c3ccccc3N(C2=O)CC(=O)Nc2ccc(cc2)F)/S1
 40 43  0  0  0  0  0  0  0  0999 V2000
    6.8558   -7.0581    4.0288 F   0  0  0  0  0  0  0  0  0  0  0  0
    6.5153   -5.8290    4.4489 C   0  0  0  0  0  0  0  0  0  0  0  0
    5.9585   -4.9293    3.5431 C   0  0  0  0  0  0  0  0  0  0  0  0
    5.6063   -3.6562    3.9857 C   0  0  0  0  0  0  0  0  0  0  0  0
    5.8118   -3.2786    5.3244 C   0  0  0  0  0  0  0  0  0  0  0  0
    5.4331   -1.9743    5.6919 N   0  0  0  0  0  0  0  0  0  0  0  0
    5.4007   -1.4155    6.9390 C   0  0  0  0  0  0  0  0  0  0  0  0
    5.7811   -1.9386    7.9705 O   0  0  0  0  0  0  0  0  0  0  0  0
    4.7903   -0.0033    6.9299 C   0  0  0  0  0  0  0  0  0  0  0  0
    3.3899   -0.0116    6.5560 N   0  0  0  0  0  0  0  0  0  0  0  0
    2.9707   -0.0145    5.2506 C   0  0  0  0  0  0  0  0  0  0  0  0
    3.7118   -0.0441    4.2720 O   0  0  0  0  0  0  0  0  0  0  0  0
    1.4689   -0.0129    5.2601 C   0  0  0  0  0  0  0  0  0  0  0  0
    0.8004   -0.0034    4.0721 C   0  0  0  0  0  0  0  0  0  0  0  0
    1.6209    0.0000    2.5088 S   0  0  0  0  0  0  0  0  0  0  0  0
    0.0000    0.0000    1.7321 C   0  0  0  0  0  0  0  0  0  0  0  0
    0.0000    0.0000    0.0000 S   0  0  0  0  0  0  0  0  0  0  0  0
   -1.0375   -0.0011    2.4998 N   0  0  0  0  0  0  0  0  0  0  0  0
   -0.7035   -0.0009    3.8560 C   0  0  0  0  0  0  0  0  0  0  0  0
   -1.5200    0.0031    4.7499 O   0  0  0  0  0  0  0  0  0  0  0  0
    1.0825   -0.0562    6.6720 C   0  0  0  0  0  0  0  0  0  0  0  0
   -0.1399   -0.0975    7.3539 C   0  0  0  0  0  0  0  0  0  0  0  0
   -0.1363   -0.1751    8.7523 C   0  0  0  0  0  0  0  0  0  0  0  0
    1.0634   -0.2215    9.4682 C   0  0  0  0  0  0  0  0  0  0  0  0
    2.3020   -0.1794    8.8091 C   0  0  0  0  0  0  0  0  0  0  0  0
    2.2883   -0.0831    7.4260 C   0  0  0  0  0  0  0  0  0  0  0  0
    6.3736   -4.2009    6.2236 C   0  0  0  0  0  0  0  0  0  0  0  0
    6.7231   -5.4772    5.7790 C   0  0  0  0  0  0  0  0  0  0  0  0
    5.8037   -5.2335    2.5067 H   0  0  0  0  0  0  0  0  0  0  0  0
    5.1587   -2.9431    3.2883 H   0  0  0  0  0  0  0  0  0  0  0  0
    5.0710   -1.3905    4.9363 H   0  0  0  0  0  0  0  0  0  0  0  0
    4.9026    0.4193    7.9342 H   0  0  0  0  0  0  0  0  0  0  0  0
    5.3256    0.6339    6.2089 H   0  0  0  0  0  0  0  0  0  0  0  0
   -2.2990   -0.0096   -0.3187 Au  0  0  0  0  0  0  0  0  0  0  0  0
   -1.0681   -0.0731    6.7891 H   0  0  0  0  0  0  0  0  0  0  0  0
   -1.0874   -0.2094    9.2873 H   0  0  0  0  0  0  0  0  0  0  0  0
    1.0437   -0.2984   10.5577 H   0  0  0  0  0  0  0  0  0  0  0  0
    3.2388   -0.2453    9.3638 H   0  0  0  0  0  0  0  0  0  0  0  0
    6.5265   -3.9091    7.2596 H   0  0  0  0  0  0  0  0  0  0  0  0
    7.1605   -6.2076    6.4621 H   0  0  0  0  0  0  0  0  0  0  0  0
  1  2  1  0  0  0  0
  2 28  2  0  0  0  0
  3  4  2  0  0  0  0
  3  2  1  0  0  0  0
  4  5  1  0  0  0  0
  5  6  1  0  0  0  0
  5 27  2  0  0  0  0
  6  7  1  0  0  0  0
  7  8  2  0  0  0  0
  9  7  1  0  0  0  0
  9 32  1  0  0  0  0
 10  9  1  0  0  0  0
 10 26  1  0  0  0  0
 11 13  1  0  0  0  0
 11 10  1  0  0  0  0
 12 11  2  0  0  0  0
 13 21  1  0  0  0  0
 14 13  2  0  0  0  0
 15 14  1  0  0  0  0
 16 18  2  0  0  0  0
 16 15  1  0  0  0  0
 17 16  1  0  0  0  0
 18 19  2  0  0  0  0
 19 14  1  0  0  0  0
 19 20  2  0  0  0  0
 21 22  2  0  0  0  0
 21 26  1  0  0  0  0
 22 23  1  0  0  0  0
 23 36  1  0  0  0  0
 23 24  2  0  0  0  0
 24 37  1  0  0  0  0
 25 38  1  0  0  0  0
 25 24  1  0  0  0  0
 26 25  2  0  0  0  0
 27 39  1  0  0  0  0
 28 27  1  0  0  0  0
 28 40  1  0  0  0  0
 29  3  1  0  0  0  0
 30  4  1  0  0  0  0
 31  6  1  0  0  0  0
 33  9  1  0  0  0  0
 34 17  1  0  0  0  0
 35 22  1  0  0  0  0
M  END
