000-751-020.xyz
 OpenBabel07262113353D
Cc1ccc(cc1)n1c(S)nc(=O)c(c1O)C1OCc2c1c(O)c(nc2)C
 44 47  0  0  1  0  0  0  0  0999 V2000
   -6.3353    0.0013   -0.0543 C   0  0  0  0  0  0  0  0  0  0  0  0
   -4.9908    0.0273    0.6229 C   0  0  0  0  0  0  0  0  0  0  0  0
   -4.2039    1.1914    0.6084 C   0  0  0  0  0  0  0  0  0  0  0  0
   -2.9654    1.2360    1.2452 C   0  0  0  0  0  0  0  0  0  0  0  0
   -2.4862    0.1000    1.9050 C   0  0  0  0  0  0  0  0  0  0  0  0
   -3.2606   -1.0670    1.9498 C   0  0  0  0  0  0  0  0  0  0  0  0
   -4.5033   -1.0964    1.3110 C   0  0  0  0  0  0  0  0  0  0  0  0
   -1.1873    0.1119    2.5131 N   0  0  0  0  0  0  0  0  0  0  0  0
    0.0000    0.0000    1.7865 C   0  0  0  0  0  0  0  0  0  0  0  0
    0.0000    0.0000    0.0000 S   0  0  0  0  0  0  0  0  0  0  0  0
    1.1590   -0.0000    2.3380 N   0  0  0  0  0  0  0  0  0  0  0  0
    1.3059    0.1180    3.7184 C   0  0  0  0  0  0  0  0  0  0  0  0
    2.4144   -0.0336    4.2425 O   0  0  0  0  0  0  0  0  0  0  0  0
    0.1191    0.3952    4.5076 C   0  0  0  0  0  0  0  0  0  0  0  0
    0.3159    0.7051    5.9809 C   0  0  1  0  0  0  0  0  0  0  0  0
   -0.6867    1.5666    6.5031 O   0  0  0  0  0  0  0  0  0  0  0  0
   -1.4895    0.9157    7.4847 C   0  0  0  0  0  0  0  0  0  0  0  0
   -0.8068   -0.3998    7.7439 C   0  0  2  0  0  0  0  0  0  0  0  0
   -1.0660   -1.4222    8.6486 C   0  0  0  0  0  0  0  0  0  0  0  0
   -0.2898   -2.5123    8.7054 N   0  0  0  0  0  0  0  0  0  0  0  0
    0.7602   -2.6332    7.8929 C   0  0  0  0  0  0  0  0  0  0  0  0
    1.6179   -3.8630    7.9987 C   0  0  0  0  0  0  0  0  0  0  0  0
    1.1014   -1.6406    6.9313 C   0  0  0  0  0  0  0  0  0  0  0  0
    2.1813   -1.8546    6.1672 O   0  0  0  0  0  0  0  0  0  0  0  0
    0.2748   -0.5173    6.8712 C   0  0  0  0  0  0  0  0  0  0  0  0
   -1.0985    0.3119    3.8944 C   0  0  0  0  0  0  0  0  0  0  0  0
   -2.2490    0.4066    4.5629 O   0  0  0  0  0  0  0  0  0  0  0  0
   -6.3056    0.5232   -1.0227 H   0  0  0  0  0  0  0  0  0  0  0  0
   -7.0926    0.5106    0.5658 H   0  0  0  0  0  0  0  0  0  0  0  0
   -6.6840   -1.0272   -0.2248 H   0  0  0  0  0  0  0  0  0  0  0  0
   -4.5653    2.0774    0.0809 H   0  0  0  0  0  0  0  0  0  0  0  0
   -2.3475    2.1341    1.2088 H   0  0  0  0  0  0  0  0  0  0  0  0
   -2.8785   -1.9460    2.4728 H   0  0  0  0  0  0  0  0  0  0  0  0
   -5.1019   -2.0098    1.3462 H   0  0  0  0  0  0  0  0  0  0  0  0
   -1.6336   -1.4979   -0.6576 Au  0  0  0  0  0  0  0  0  0  0  0  0
    1.2956    1.2106    6.0509 H   0  0  0  0  0  0  0  0  0  0  0  0
   -2.5189    0.7791    7.1035 H   0  0  0  0  0  0  0  0  0  0  0  0
   -1.5406    1.5534    8.3852 H   0  0  0  0  0  0  0  0  0  0  0  0
   -1.9065   -1.3726    9.3504 H   0  0  0  0  0  0  0  0  0  0  0  0
    1.2132   -4.5230    8.7764 H   0  0  0  0  0  0  0  0  0  0  0  0
    2.6593   -3.5978    8.2451 H   0  0  0  0  0  0  0  0  0  0  0  0
    1.6579   -4.4029    7.0382 H   0  0  0  0  0  0  0  0  0  0  0  0
    2.3473   -1.1155    5.5274 H   0  0  0  0  0  0  0  0  0  0  0  0
   -3.0007    0.4152    3.9482 H   0  0  0  0  0  0  0  0  0  0  0  0
  1 29  1  0  0  0  0
  1  2  1  0  0  0  0
  2  7  1  0  0  0  0
  3  2  2  0  0  0  0
  3  4  1  0  0  0  0
  4  5  2  0  0  0  0
  5  6  1  0  0  0  0
  5  8  1  0  0  0  0
  6 33  1  0  0  0  0
  7 34  1  0  0  0  0
  7  6  2  0  0  0  0
  8 26  1  0  0  0  0
  9 11  2  0  0  0  0
  9  8  1  0  0  0  0
 10  9  1  0  0  0  0
 11 12  2  0  0  0  0
 12 13  2  0  0  0  0
 12 14  1  0  0  0  0
 14 15  1  0  0  0  0
 15 36  1  1  0  0  0
 15 16  1  0  0  0  0
 15 25  1  0  0  0  0
 16 17  1  0  0  0  0
 17 18  1  0  0  0  0
 17 38  1  0  0  0  0
 18 25  1  1  0  0  0
 18 19  1  0  0  0  0
 19 20  2  0  0  0  0
 19 39  1  0  0  0  0
 21 22  1  0  0  0  0
 21 20  2  0  0  0  0
 22 41  1  0  0  0  0
 22 40  1  0  0  0  0
 23 21  1  0  0  0  0
 24 23  1  0  0  0  0
 25 23  2  0  0  0  0
 26 14  2  0  0  0  0
 26 27  1  0  0  0  0
 28  1  1  0  0  0  0
 30  1  1  0  0  0  0
 31  3  1  0  0  0  0
 32  4  1  0  0  0  0
 35 10  1  0  0  0  0
 37 17  1  0  0  0  0
 42 22  1  0  0  0  0
 43 24  1  0  0  0  0
 44 27  1  0  0  0  0
M  RAD  1  18   2
M  END
