000-749-817.xyz
 OpenBabel07262113343D
COc1ccc2c(c1)[nH]c(=O)c(c2)/C=C/1\N=C(N=C1O)S
 32 34  0  0  0  0  0  0  0  0999 V2000
   -9.9900    0.0047    4.8500 C   0  0  0  0  0  0  0  0  0  0  0  0
   -8.9313    0.0036    5.7852 O   0  0  0  0  0  0  0  0  0  0  0  0
   -7.6554    0.0031    5.3473 C   0  0  0  0  0  0  0  0  0  0  0  0
   -7.2906    0.0037    3.9808 C   0  0  0  0  0  0  0  0  0  0  0  0
   -5.9474    0.0031    3.6383 C   0  0  0  0  0  0  0  0  0  0  0  0
   -4.9303    0.0019    4.6146 C   0  0  0  0  0  0  0  0  0  0  0  0
   -3.5408    0.0013    4.2962 C   0  0  0  0  0  0  0  0  0  0  0  0
   -2.5666    0.0002    5.2710 C   0  0  0  0  0  0  0  0  0  0  0  0
   -1.1494   -0.0002    5.0132 C   0  0  0  0  0  0  0  0  0  0  0  0
   -0.5084   -0.0002    3.8093 C   0  0  0  0  0  0  0  0  0  0  0  0
   -1.0551   -0.0000    2.5329 N   0  0  0  0  0  0  0  0  0  0  0  0
    0.0000   -0.0000    1.7429 C   0  0  0  0  0  0  0  0  0  0  0  0
    0.0000    0.0000    0.0000 S   0  0  0  0  0  0  0  0  0  0  0  0
    1.2581    0.0000    2.3494 N   0  0  0  0  0  0  0  0  0  0  0  0
    0.9651   -0.0001    3.6169 C   0  0  0  0  0  0  0  0  0  0  0  0
    1.8926   -0.0002    4.5666 O   0  0  0  0  0  0  0  0  0  0  0  0
   -2.9522   -0.0005    6.7007 C   0  0  0  0  0  0  0  0  0  0  0  0
   -2.1644   -0.0015    7.6350 O   0  0  0  0  0  0  0  0  0  0  0  0
   -4.3232    0.0001    6.9369 N   0  0  0  0  0  0  0  0  0  0  0  0
   -5.3188    0.0012    5.9860 C   0  0  0  0  0  0  0  0  0  0  0  0
   -6.6698    0.0018    6.3410 C   0  0  0  0  0  0  0  0  0  0  0  0
   -9.9671    0.9038    4.2099 H   0  0  0  0  0  0  0  0  0  0  0  0
   -9.9682   -0.8937    4.2089 H   0  0  0  0  0  0  0  0  0  0  0  0
  -10.9192    0.0049    5.4341 H   0  0  0  0  0  0  0  0  0  0  0  0
   -8.0482    0.0047    3.1991 H   0  0  0  0  0  0  0  0  0  0  0  0
   -5.6556    0.0037    2.5854 H   0  0  0  0  0  0  0  0  0  0  0  0
   -3.2241    0.0019    3.2512 H   0  0  0  0  0  0  0  0  0  0  0  0
   -0.5446   -0.0005    5.9261 H   0  0  0  0  0  0  0  0  0  0  0  0
   -2.2699   -0.0018   -0.4011 Au  0  0  0  0  0  0  0  0  0  0  0  0
    1.4715   -0.0002    5.4385 H   0  0  0  0  0  0  0  0  0  0  0  0
   -4.5766   -0.0004    7.9208 H   0  0  0  0  0  0  0  0  0  0  0  0
   -6.9809    0.0013    7.3870 H   0  0  0  0  0  0  0  0  0  0  0  0
  1 24  1  0  0  0  0
  1  2  1  0  0  0  0
  3  2  1  0  0  0  0
  3 21  2  0  0  0  0
  4  3  1  0  0  0  0
  5  4  2  0  0  0  0
  5  6  1  0  0  0  0
  6 20  2  0  0  0  0
  7  6  1  0  0  0  0
  7  8  1  0  0  0  0
  8 17  1  0  0  0  0
  9  8  2  0  0  0  0
  9 28  1  0  0  0  0
 10  9  1  0  0  0  0
 11 10  2  0  0  0  0
 12 14  2  0  0  0  0
 12 11  2  0  0  0  0
 13 12  1  0  0  0  0
 14 15  2  0  0  0  0
 15 10  1  0  0  0  0
 15 16  1  0  0  0  0
 16 30  1  0  0  0  0
 17 19  1  0  0  0  0
 17 18  2  0  0  0  0
 19 31  1  0  0  0  0
 20 21  1  0  0  0  0
 20 19  1  0  0  0  0
 21 32  1  0  0  0  0
 22  1  1  0  0  0  0
 23  1  1  0  0  0  0
 25  4  1  0  0  0  0
 26  5  1  0  0  0  0
 27  7  1  0  0  0  0
 29 13  1  0  0  0  0
M  RAD  1   7   2
M  END
