000-804-162.xyz
 OpenBabel07262113363D
COc1cc2/C(=C\3/SC(=NC3=O)S)/C(=O)N3c2c(c1)C(=CC3(C)C)C
 41 44  0  0  0  0  0  0  0  0999 V2000
   -2.5353    0.0015    8.8850 C   0  0  0  0  0  0  0  0  0  0  0  0
   -1.2807    0.0057    9.5281 O   0  0  0  0  0  0  0  0  0  0  0  0
   -0.1584    0.0059    8.7597 C   0  0  0  0  0  0  0  0  0  0  0  0
   -0.1828    0.0038    7.3576 C   0  0  0  0  0  0  0  0  0  0  0  0
    1.0435    0.0036    6.6680 C   0  0  0  0  0  0  0  0  0  0  0  0
    1.4474    0.0020    5.2636 C   0  0  0  0  0  0  0  0  0  0  0  0
    2.9681    0.0027    5.2638 C   0  0  0  0  0  0  0  0  0  0  0  0
    3.6848    0.0013    4.2751 O   0  0  0  0  0  0  0  0  0  0  0  0
    3.3645    0.0051    6.5818 N   0  0  0  0  0  0  0  0  0  0  0  0
    2.2376    0.0056    7.4070 C   0  0  0  0  0  0  0  0  0  0  0  0
    2.2882    0.0081    8.7980 C   0  0  0  0  0  0  0  0  0  0  0  0
    1.0596    0.0082    9.4705 C   0  0  0  0  0  0  0  0  0  0  0  0
    3.6275    0.0106    9.4126 C   0  0  0  0  0  0  0  0  0  0  0  0
    3.7324    0.0140   10.9117 C   0  0  0  0  0  0  0  0  0  0  0  0
    4.7149    0.0099    8.6153 C   0  0  0  0  0  0  0  0  0  0  0  0
    4.7490    0.0061    7.0961 C   0  0  0  0  0  0  0  0  0  0  0  0
    5.4745   -1.2610    6.6029 C   0  0  0  0  0  0  0  0  0  0  0  0
    5.4750    1.2704    6.5963 C   0  0  0  0  0  0  0  0  0  0  0  0
    0.7855    0.0007    4.0747 C   0  0  0  0  0  0  0  0  0  0  0  0
    1.6163    0.0000    2.5134 S   0  0  0  0  0  0  0  0  0  0  0  0
    0.0000    0.0000    1.7344 C   0  0  0  0  0  0  0  0  0  0  0  0
    0.0000    0.0000    0.0000 S   0  0  0  0  0  0  0  0  0  0  0  0
   -1.0434    0.0001    2.4965 N   0  0  0  0  0  0  0  0  0  0  0  0
   -0.7139    0.0003    3.8543 C   0  0  0  0  0  0  0  0  0  0  0  0
   -1.5379    0.0001    4.7441 O   0  0  0  0  0  0  0  0  0  0  0  0
   -3.2939    0.0011    9.6789 H   0  0  0  0  0  0  0  0  0  0  0  0
   -2.6749    0.8955    8.2514 H   0  0  0  0  0  0  0  0  0  0  0  0
   -2.6703   -0.8955    8.2548 H   0  0  0  0  0  0  0  0  0  0  0  0
   -1.1055    0.0021    6.7874 H   0  0  0  0  0  0  0  0  0  0  0  0
    1.0088    0.0098   10.5598 H   0  0  0  0  0  0  0  0  0  0  0  0
    3.2343    0.8995   11.3410 H   0  0  0  0  0  0  0  0  0  0  0  0
    3.2357   -0.8703   11.3450 H   0  0  0  0  0  0  0  0  0  0  0  0
    4.7807    0.0156   11.2415 H   0  0  0  0  0  0  0  0  0  0  0  0
    5.7086    0.0119    9.0729 H   0  0  0  0  0  0  0  0  0  0  0  0
    4.9507   -2.1615    6.9564 H   0  0  0  0  0  0  0  0  0  0  0  0
    6.5041   -1.2825    6.9913 H   0  0  0  0  0  0  0  0  0  0  0  0
    5.5105   -1.2749    5.5047 H   0  0  0  0  0  0  0  0  0  0  0  0
    4.9519    2.1729    6.9455 H   0  0  0  0  0  0  0  0  0  0  0  0
    6.5048    1.2932    6.9841 H   0  0  0  0  0  0  0  0  0  0  0  0
    5.5105    1.2787    5.4981 H   0  0  0  0  0  0  0  0  0  0  0  0
   -2.2990    0.0003   -0.3147 Au  0  0  0  0  0  0  0  0  0  0  0  0
  1  2  1  0  0  0  0
  1 26  1  0  0  0  0
  3 12  2  0  0  0  0
  3  2  1  0  0  0  0
  4  3  1  0  0  0  0
  5  4  2  0  0  0  0
  5 10  1  0  0  0  0
  6  7  1  0  0  0  0
  6  5  1  0  0  0  0
  7  9  1  0  0  0  0
  8  7  2  0  0  0  0
  9 16  1  0  0  0  0
  9 10  1  0  0  0  0
 10 11  2  0  0  0  0
 11 13  1  0  0  0  0
 11 12  1  0  0  0  0
 12 30  1  0  0  0  0
 13 14  1  0  0  0  0
 14 33  1  0  0  0  0
 14 31  1  0  0  0  0
 14 32  1  0  0  0  0
 15 34  1  0  0  0  0
 15 13  2  0  0  0  0
 16 15  1  0  0  0  0
 17 35  1  0  0  0  0
 17 36  1  0  0  0  0
 17 16  1  0  0  0  0
 18 38  1  0  0  0  0
 18 39  1  0  0  0  0
 18 16  1  0  0  0  0
 19  6  2  0  0  0  0
 20 19  1  0  0  0  0
 21 23  2  0  0  0  0
 21 20  1  0  0  0  0
 22 21  1  0  0  0  0
 23 24  2  0  0  0  0
 24 19  1  0  0  0  0
 24 25  2  0  0  0  0
 27  1  1  0  0  0  0
 28  1  1  0  0  0  0
 29  4  1  0  0  0  0
 37 17  1  0  0  0  0
 40 18  1  0  0  0  0
 41 22  1  0  0  0  0
M  END
