000-160-790.xyz
 OpenBabel07262113323D
Cn1ccc(n1)c1nnc(n1C)S
 22 23  0  0  0  0  0  0  0  0999 V2000
   -2.2404   -0.9582    8.2775 C   0  0  0  0  0  0  0  0  0  0  0  0
   -2.2724   -0.3650    6.9573 N   0  0  0  0  0  0  0  0  0  0  0  0
   -3.2241    0.4543    6.4320 C   0  0  0  0  0  0  0  0  0  0  0  0
   -2.8289    0.7389    5.1367 C   0  0  0  0  0  0  0  0  0  0  0  0
   -1.6037    0.0301    4.9757 C   0  0  0  0  0  0  0  0  0  0  0  0
   -1.2913   -0.6370    6.0921 N   0  0  0  0  0  0  0  0  0  0  0  0
   -0.7126    0.0051    3.8178 C   0  0  0  0  0  0  0  0  0  0  0  0
    0.6016    0.0042    3.8435 N   0  0  0  0  0  0  0  0  0  0  0  0
    1.0514    0.0000    2.5569 N   0  0  0  0  0  0  0  0  0  0  0  0
    0.0000    0.0000    1.7566 C   0  0  0  0  0  0  0  0  0  0  0  0
    0.0000    0.0000    0.0000 S   0  0  0  0  0  0  0  0  0  0  0  0
   -1.1520   -0.0023    2.5005 N   0  0  0  0  0  0  0  0  0  0  0  0
   -2.5066   -0.0748    1.9900 C   0  0  0  0  0  0  0  0  0  0  0  0
   -3.0698   -0.5557    8.8734 H   0  0  0  0  0  0  0  0  0  0  0  0
   -1.2864   -0.7184    8.7682 H   0  0  0  0  0  0  0  0  0  0  0  0
   -2.3373   -2.0523    8.2091 H   0  0  0  0  0  0  0  0  0  0  0  0
   -4.0878    0.7748    7.0101 H   0  0  0  0  0  0  0  0  0  0  0  0
   -3.3277    1.3937    4.4280 H   0  0  0  0  0  0  0  0  0  0  0  0
    2.3072   -0.2066   -0.1847 Au  0  0  0  0  0  0  0  0  0  0  0  0
   -2.5166   -0.6907    1.0795 H   0  0  0  0  0  0  0  0  0  0  0  0
   -3.1555   -0.5379    2.7437 H   0  0  0  0  0  0  0  0  0  0  0  0
   -2.8989    0.9247    1.7427 H   0  0  0  0  0  0  0  0  0  0  0  0
  1 15  1  0  0  0  0
  1 14  1  0  0  0  0
  2  1  1  0  0  0  0
  3  2  1  0  0  0  0
  3 17  1  0  0  0  0
  4  3  2  0  0  0  0
  5  4  1  0  0  0  0
  5  6  2  0  0  0  0
  6  2  1  0  0  0  0
  7  8  2  0  0  0  0
  7  5  1  0  0  0  0
  9  8  1  0  0  0  0
 10 12  1  0  0  0  0
 10  9  2  0  0  0  0
 11 10  1  0  0  0  0
 12  7  1  0  0  0  0
 13 12  1  0  0  0  0
 13 21  1  0  0  0  0
 16  1  1  0  0  0  0
 18  4  1  0  0  0  0
 19 11  1  0  0  0  0
 20 13  1  0  0  0  0
 22 13  1  0  0  0  0
M  END
