000-839-263.xyz
 OpenBabel07262113373D
Brc1cccc(c1)N1C(=NC(=O)/C(=C\c2cc(n(c2C)c2cccnc2)C)/C1=O)S
 47 50  0  0  1  0  0  0  0  0999 V2000
    3.3768   -0.0480    9.3587 C   0  0  0  0  0  0  0  0  0  0  0  0
    2.0910   -0.0230    8.6041 C   0  0  0  0  0  0  0  0  0  0  0  0
    1.8407   -0.0146    7.2604 C   0  0  0  0  0  0  0  0  0  0  0  0
    0.4083   -0.0222    7.0674 C   0  0  0  0  0  0  0  0  0  0  0  0
   -0.4100   -0.0135    5.9020 C   0  0  0  0  0  0  0  0  0  0  0  0
   -0.1953   -0.0030    4.5393 C   0  0  0  0  0  0  0  0  0  0  0  0
    1.1149    0.0001    3.8430 C   0  0  0  0  0  0  0  0  0  0  0  0
    2.1888    0.0032    4.4229 O   0  0  0  0  0  0  0  0  0  0  0  0
    1.1020    0.0000    2.4446 N   0  0  0  0  0  0  0  0  0  0  0  0
    0.0000    0.0000    1.7736 C   0  0  0  0  0  0  0  0  0  0  0  0
    0.0000    0.0000    0.0000 S   0  0  0  0  0  0  0  0  0  0  0  0
   -1.2648    0.0017    2.3367 N   0  0  0  0  0  0  0  0  0  0  0  0
   -1.4424    0.0034    3.7428 C   0  0  0  0  0  0  0  0  0  0  0  0
   -2.5737    0.0089    4.1920 O   0  0  0  0  0  0  0  0  0  0  0  0
   -2.4454    0.0014    1.5167 C   0  0  0  0  0  0  0  0  0  0  0  0
   -3.0348    1.2121    1.1463 C   0  0  0  0  0  0  0  0  0  0  0  0
   -4.1755    1.1996    0.3435 C   0  0  0  0  0  0  0  0  0  0  0  0
   -4.7290   -0.0095   -0.0857 C   0  0  0  0  0  0  0  0  0  0  0  0
   -4.1285   -1.2102    0.3025 C   0  0  0  0  0  0  0  0  0  0  0  0
   -4.8752   -2.8645   -0.2747 Br  0  0  0  0  0  0  0  0  0  0  0  0
   -2.9890   -1.2185    1.1065 C   0  0  0  0  0  0  0  0  0  0  0  0
   -0.1734   -0.0388    8.3580 C   0  0  0  0  0  0  0  0  0  0  0  0
   -1.5997   -0.0365    8.7936 C   0  0  0  0  0  0  0  0  0  0  0  0
    0.8486   -0.0384    9.2665 N   0  0  0  0  0  0  0  0  0  0  0  0
    0.6880   -0.0534   10.6791 C   0  0  2  0  0  0  0  0  0  0  0  0
    0.9146    1.0958   11.4411 C   0  0  0  0  0  0  0  0  0  0  0  0
    0.7473    1.0170   12.8231 C   0  0  0  0  0  0  0  0  0  0  0  0
    0.3530   -0.2044   13.3797 C   0  0  0  0  0  0  0  0  0  0  0  0
    0.1345   -1.3040   12.6546 N   0  0  0  0  0  0  0  0  0  0  0  0
    0.3042   -1.2302   11.3359 C   0  0  0  0  0  0  0  0  0  0  0  0
    3.4433   -0.9216   10.0290 H   0  0  0  0  0  0  0  0  0  0  0  0
    3.5168    0.8496    9.9844 H   0  0  0  0  0  0  0  0  0  0  0  0
    4.2126   -0.0979    8.6482 H   0  0  0  0  0  0  0  0  0  0  0  0
    2.5661   -0.0104    6.4558 H   0  0  0  0  0  0  0  0  0  0  0  0
   -1.4819   -0.0177    6.1231 H   0  0  0  0  0  0  0  0  0  0  0  0
    2.3100   -0.0045   -0.2447 Au  0  0  0  0  0  0  0  0  0  0  0  0
   -2.5924    2.1493    1.4859 H   0  0  0  0  0  0  0  0  0  0  0  0
   -4.6424    2.1407    0.0455 H   0  0  0  0  0  0  0  0  0  0  0  0
   -5.6195   -0.0229   -0.7153 H   0  0  0  0  0  0  0  0  0  0  0  0
   -2.5191   -2.1538    1.4094 H   0  0  0  0  0  0  0  0  0  0  0  0
   -1.8821   -0.9860    9.2782 H   0  0  0  0  0  0  0  0  0  0  0  0
   -2.2714    0.1140    7.9400 H   0  0  0  0  0  0  0  0  0  0  0  0
   -1.7918    0.7662    9.5240 H   0  0  0  0  0  0  0  0  0  0  0  0
    1.2097    2.0254   10.9500 H   0  0  0  0  0  0  0  0  0  0  0  0
    0.9129    1.8879   13.4603 H   0  0  0  0  0  0  0  0  0  0  0  0
    0.2091   -0.2954   14.4622 H   0  0  0  0  0  0  0  0  0  0  0  0
    0.1343   -2.1411   10.7505 H   0  0  0  0  0  0  0  0  0  0  0  0
  1 32  1  0  0  0  0
  1 31  1  0  0  0  0
  2 24  1  0  0  0  0
  2  1  1  0  0  0  0
  3  2  2  0  0  0  0
  4  3  1  0  0  0  0
  4 22  2  0  0  0  0
  5 35  1  0  0  0  0
  5  4  1  0  0  0  0
  6  5  2  0  0  0  0
  7  8  2  0  0  0  0
  7  6  1  0  0  0  0
  9  7  2  0  0  0  0
 10 12  1  0  0  0  0
 10  9  2  0  0  0  0
 11 10  1  0  0  0  0
 12 13  1  0  0  0  0
 13 14  2  0  0  0  0
 13  6  1  0  0  0  0
 15 12  1  0  0  0  0
 16 37  1  0  0  0  0
 16 15  1  0  0  0  0
 17 16  2  0  0  0  0
 18 19  2  0  0  0  0
 18 17  1  0  0  0  0
 19 21  1  0  0  0  0
 20 19  1  0  0  0  0
 21 40  1  0  0  0  0
 21 15  2  0  0  0  0
 22 23  1  0  0  0  0
 22 24  1  0  0  0  0
 23 41  1  0  0  0  0
 23 43  1  0  0  0  0
 25 24  1  1  0  0  0
 25 30  1  0  0  0  0
 25 26  1  0  0  0  0
 26 27  2  0  0  0  0
 27 28  1  0  0  0  0
 27 45  1  0  0  0  0
 28 46  1  0  0  0  0
 29 28  2  0  0  0  0
 30 29  2  0  0  0  0
 33  1  1  0  0  0  0
 34  3  1  0  0  0  0
 36 11  1  0  0  0  0
 38 17  1  0  0  0  0
 39 18  1  0  0  0  0
 42 23  1  0  0  0  0
 44 26  1  0  0  0  0
 47 30  1  0  0  0  0
M  RAD  1  25   2
M  END
