000-825-664.xyz
 OpenBabel07262113373D
O=C1N=C(S)N(C(=O)/C/1=C\c1ccc(o1)N1CCCCC1)c1ccccc1F
 46 49  0  0  0  0  0  0  0  0999 V2000
    2.5205    2.3686    1.7736 F   0  0  0  0  0  0  0  0  0  0  0  0
    3.0523    1.2594    1.2560 C   0  0  0  0  0  0  0  0  0  0  0  0
    4.1932    1.3400    0.4658 C   0  0  0  0  0  0  0  0  0  0  0  0
    4.7307    0.1659   -0.0683 C   0  0  0  0  0  0  0  0  0  0  0  0
    4.1333   -1.0712    0.1923 C   0  0  0  0  0  0  0  0  0  0  0  0
    2.9913   -1.1364    0.9916 C   0  0  0  0  0  0  0  0  0  0  0  0
    2.4370    0.0314    1.5202 C   0  0  0  0  0  0  0  0  0  0  0  0
    1.2650    0.0000    2.3381 N   0  0  0  0  0  0  0  0  0  0  0  0
   -0.0000    0.0000    1.7760 C   0  0  0  0  0  0  0  0  0  0  0  0
    0.0000    0.0000    0.0000 S   0  0  0  0  0  0  0  0  0  0  0  0
   -1.1029   -0.0008    2.4456 N   0  0  0  0  0  0  0  0  0  0  0  0
   -1.0984    0.0187    3.8432 C   0  0  0  0  0  0  0  0  0  0  0  0
   -2.1502   -0.0068    4.4611 O   0  0  0  0  0  0  0  0  0  0  0  0
    0.2261    0.0813    4.5251 C   0  0  0  0  0  0  0  0  0  0  0  0
    0.1900    0.1375    5.9097 C   0  0  0  0  0  0  0  0  0  0  0  0
    1.1642    0.2098    6.9106 C   0  0  0  0  0  0  0  0  0  0  0  0
    2.5565    0.2555    7.0269 C   0  0  0  0  0  0  0  0  0  0  0  0
    2.8821    0.3199    8.3887 C   0  0  0  0  0  0  0  0  0  0  0  0
    1.6601    0.3199    9.0813 C   0  0  0  0  0  0  0  0  0  0  0  0
    0.6431    0.2493    8.2205 O   0  0  0  0  0  0  0  0  0  0  0  0
    1.3642    0.3961   10.3972 N   0  0  0  0  0  0  0  0  0  0  0  0
    0.0030    0.1845   10.8906 C   0  0  0  0  0  0  0  0  0  0  0  0
   -0.3283    1.1736   12.0075 C   0  0  0  0  0  0  0  0  0  0  0  0
    0.7278    1.1282   13.1149 C   0  0  0  0  0  0  0  0  0  0  0  0
    2.1237    1.3593   12.5305 C   0  0  0  0  0  0  0  0  0  0  0  0
    2.4223    0.3725   11.4005 C   0  0  0  0  0  0  0  0  0  0  0  0
    1.4517    0.0789    3.7478 C   0  0  0  0  0  0  0  0  0  0  0  0
    2.5949    0.1275    4.1762 O   0  0  0  0  0  0  0  0  0  0  0  0
    4.6410    2.3177    0.2808 H   0  0  0  0  0  0  0  0  0  0  0  0
    5.6256    0.2210   -0.6920 H   0  0  0  0  0  0  0  0  0  0  0  0
    4.5586   -1.9859   -0.2248 H   0  0  0  0  0  0  0  0  0  0  0  0
    2.5068   -2.0891    1.2107 H   0  0  0  0  0  0  0  0  0  0  0  0
   -2.3095    0.0444   -0.2399 Au  0  0  0  0  0  0  0  0  0  0  0  0
   -0.8353    0.1231    6.2961 H   0  0  0  0  0  0  0  0  0  0  0  0
    3.2230    0.2373    6.1714 H   0  0  0  0  0  0  0  0  0  0  0  0
    3.8768    0.3578    8.8212 H   0  0  0  0  0  0  0  0  0  0  0  0
   -0.6925    0.2848   10.0503 H   0  0  0  0  0  0  0  0  0  0  0  0
   -0.0839   -0.8529   11.2719 H   0  0  0  0  0  0  0  0  0  0  0  0
   -1.3283    0.9412   12.4070 H   0  0  0  0  0  0  0  0  0  0  0  0
   -0.3768    2.1901   11.5809 H   0  0  0  0  0  0  0  0  0  0  0  0
    0.5074    1.8767   13.8922 H   0  0  0  0  0  0  0  0  0  0  0  0
    0.6968    0.1403   13.6101 H   0  0  0  0  0  0  0  0  0  0  0  0
    2.1923    2.3857   12.1311 H   0  0  0  0  0  0  0  0  0  0  0  0
    2.8985    1.2600   13.3076 H   0  0  0  0  0  0  0  0  0  0  0  0
    2.5170   -0.6531   11.8106 H   0  0  0  0  0  0  0  0  0  0  0  0
    3.3766    0.6205   10.9203 H   0  0  0  0  0  0  0  0  0  0  0  0
  2  7  1  0  0  0  0
  2  1  1  0  0  0  0
  3  2  2  0  0  0  0
  4  5  2  0  0  0  0
  4  3  1  0  0  0  0
  5  6  1  0  0  0  0
  6 32  1  0  0  0  0
  6  7  2  0  0  0  0
  7  8  1  0  0  0  0
  8 27  1  0  0  0  0
  9  8  1  0  0  0  0
  9 11  2  0  0  0  0
 10  9  1  0  0  0  0
 11 12  2  0  0  0  0
 12 13  2  0  0  0  0
 12 14  1  0  0  0  0
 14 15  2  0  0  0  0
 15 34  1  0  0  0  0
 15 16  1  0  0  0  0
 16 17  2  0  0  0  0
 16 20  1  0  0  0  0
 17 18  1  0  0  0  0
 18 36  1  0  0  0  0
 18 19  2  0  0  0  0
 19 21  1  0  0  0  0
 20 19  1  0  0  0  0
 21 22  1  0  0  0  0
 21 26  1  0  0  0  0
 22 38  1  0  0  0  0
 22 23  1  0  0  0  0
 23 39  1  0  0  0  0
 23 24  1  0  0  0  0
 24 42  1  0  0  0  0
 24 41  1  0  0  0  0
 25 24  1  0  0  0  0
 25 44  1  0  0  0  0
 26 45  1  0  0  0  0
 26 25  1  0  0  0  0
 27 28  2  0  0  0  0
 27 14  1  0  0  0  0
 29  3  1  0  0  0  0
 30  4  1  0  0  0  0
 31  5  1  0  0  0  0
 33 10  1  0  0  0  0
 35 17  1  0  0  0  0
 37 22  1  0  0  0  0
 40 23  1  0  0  0  0
 43 25  1  0  0  0  0
 46 26  1  0  0  0  0
M  END
