000-741-090.xyz
 OpenBabel07262113343D
CCOc1cc2cc(/C=C/3\SC(=NC3=O)S)c(nc2cc1)O
 34 36  0  0  1  0  0  0  0  0999 V2000
    9.8854    1.5650    6.2951 C   0  0  0  0  0  0  0  0  0  0  0  0
    9.5723    0.1347    5.8797 C   0  0  0  0  0  0  0  0  0  0  0  0
    8.2978    0.0073    5.2644 O   0  0  0  0  0  0  0  0  0  0  0  0
    7.1621    0.0149    6.0082 C   0  0  0  0  0  0  0  0  0  0  0  0
    7.1407   -0.0044    7.4302 C   0  0  0  0  0  0  0  0  0  0  0  0
    5.9408   -0.0185    8.1165 C   0  0  0  0  0  0  0  0  0  0  0  0
    4.7056   -0.0138    7.4288 C   0  0  0  0  0  0  0  0  0  0  0  0
    3.5358   -0.0258    8.1277 N   0  0  0  0  0  0  0  0  0  0  0  0
    2.4057   -0.0216    7.4803 C   0  0  0  0  0  0  0  0  0  0  0  0
    1.2647   -0.0340    8.1928 O   0  0  0  0  0  0  0  0  0  0  0  0
    2.2822   -0.0049    6.0382 C   0  0  0  0  0  0  0  0  0  0  0  0
    0.9532   -0.0031    5.4554 C   0  0  0  0  0  0  0  0  0  0  0  0
    0.5645   -0.0003    4.1597 C   0  0  0  0  0  0  0  0  0  0  0  0
    1.5321   -0.0000    2.6897 S   0  0  0  0  0  0  0  0  0  0  0  0
   -0.0000   -0.0000    1.7454 C   0  0  0  0  0  0  0  0  0  0  0  0
    0.0000    0.0000    0.0000 S   0  0  0  0  0  0  0  0  0  0  0  0
   -1.1021    0.0002    2.3958 N   0  0  0  0  0  0  0  0  0  0  0  0
   -0.9109    0.0004    3.7934 C   0  0  0  0  0  0  0  0  0  0  0  0
   -1.8005    0.0009    4.6071 O   0  0  0  0  0  0  0  0  0  0  0  0
    3.4744    0.0084    5.3308 C   0  0  0  0  0  0  0  0  0  0  0  0
    4.7266    0.0050    5.9968 C   0  0  1  0  0  0  0  0  0  0  0  0
    5.9631    0.0209    5.3107 C   0  0  0  0  0  0  0  0  0  0  0  0
    9.1927    1.9280    7.0692 H   0  0  0  0  0  0  0  0  0  0  0  0
    9.8096    2.2385    5.4280 H   0  0  0  0  0  0  0  0  0  0  0  0
   10.9094    1.6282    6.6960 H   0  0  0  0  0  0  0  0  0  0  0  0
    9.6626   -0.5627    6.7316 H   0  0  0  0  0  0  0  0  0  0  0  0
   10.2853   -0.2033    5.1132 H   0  0  0  0  0  0  0  0  0  0  0  0
    8.0718   -0.0091    7.9959 H   0  0  0  0  0  0  0  0  0  0  0  0
    5.9187   -0.0321    9.2074 H   0  0  0  0  0  0  0  0  0  0  0  0
    1.5300   -0.0442    9.1270 H   0  0  0  0  0  0  0  0  0  0  0  0
    0.1190   -0.0054    6.1618 H   0  0  0  0  0  0  0  0  0  0  0  0
    2.2511   -0.0022   -0.5109 Au  0  0  0  0  0  0  0  0  0  0  0  0
    3.4727    0.0233    4.2404 H   0  0  0  0  0  0  0  0  0  0  0  0
    5.9901    0.0345    4.2195 H   0  0  0  0  0  0  0  0  0  0  0  0
  1 25  1  0  0  0  0
  1 23  1  0  0  0  0
  2  1  1  0  0  0  0
  2 26  1  0  0  0  0
  3  2  1  0  0  0  0
  3  4  1  0  0  0  0
  4  5  1  0  0  0  0
  5 28  1  0  0  0  0
  5  6  2  0  0  0  0
  6 29  1  0  0  0  0
  7  6  1  0  0  0  0
  7  8  2  0  0  0  0
  9  8  2  0  0  0  0
  9 10  1  0  0  0  0
 10 30  1  0  0  0  0
 11  9  1  0  0  0  0
 12 11  1  0  0  0  0
 12 31  1  0  0  0  0
 13 12  2  0  0  0  0
 14 13  1  0  0  0  0
 15 17  2  0  0  0  0
 15 14  1  0  0  0  0
 16 15  1  0  0  0  0
 17 18  2  0  0  0  0
 18 13  1  0  0  0  0
 18 19  2  0  0  0  0
 20 21  1  0  0  0  0
 20 11  2  0  0  0  0
 21 22  1  1  0  0  0
 21  7  1  0  0  0  0
 22  4  2  0  0  0  0
 24  1  1  0  0  0  0
 27  2  1  0  0  0  0
 32 16  1  0  0  0  0
 33 20  1  0  0  0  0
 34 22  1  0  0  0  0
M  RAD  1  21   2
M  END
