000-778-157.xyz
 OpenBabel07262113363D
Fc1ccc(cc1)N1C(=NC(=O)/C(=C/c2cccn2c2ccc(cc2)Cl)/C1=O)S
 42 45  0  0  1  0  0  0  0  0999 V2000
   -6.2412   -0.7122    0.4120 F   0  0  0  0  0  0  0  0  0  0  0  0
   -5.0170   -0.5498    0.9272 C   0  0  0  0  0  0  0  0  0  0  0  0
   -4.6535    0.7054    1.4203 C   0  0  0  0  0  0  0  0  0  0  0  0
   -3.3768    0.8740    1.9611 C   0  0  0  0  0  0  0  0  0  0  0  0
   -2.4810   -0.2028    1.9853 C   0  0  0  0  0  0  0  0  0  0  0  0
   -2.8731   -1.4557    1.5109 C   0  0  0  0  0  0  0  0  0  0  0  0
   -4.1468   -1.6354    0.9702 C   0  0  0  0  0  0  0  0  0  0  0  0
   -1.1695   -0.0389    2.5361 N   0  0  0  0  0  0  0  0  0  0  0  0
    0.0000   -0.0000    1.7800 C   0  0  0  0  0  0  0  0  0  0  0  0
    0.0000    0.0000    0.0000 S   0  0  0  0  0  0  0  0  0  0  0  0
    1.1897   -0.0000    2.2671 N   0  0  0  0  0  0  0  0  0  0  0  0
    1.4317   -0.0986    3.6359 C   0  0  0  0  0  0  0  0  0  0  0  0
    2.5649   -0.1523    4.0752 O   0  0  0  0  0  0  0  0  0  0  0  0
    0.2328   -0.1499    4.5301 C   0  0  1  0  0  0  0  0  0  0  0  0
    0.4663   -0.2811    5.8762 C   0  0  0  0  0  0  0  0  0  0  0  0
   -0.3801   -0.5801    6.9865 C   0  0  0  0  0  0  0  0  0  0  0  0
   -0.1637   -0.1512    8.3060 C   0  0  0  0  0  0  0  0  0  0  0  0
   -1.2547   -0.5713    9.0910 C   0  0  0  0  0  0  0  0  0  0  0  0
   -2.0942   -1.2976    8.2559 C   0  0  0  0  0  0  0  0  0  0  0  0
   -1.5766   -1.3038    6.9886 N   0  0  0  0  0  0  0  0  0  0  0  0
   -2.0671   -2.1441    5.9516 C   0  0  0  0  0  0  0  0  0  0  0  0
   -3.4269   -2.1265    5.6230 C   0  0  0  0  0  0  0  0  0  0  0  0
   -3.9146   -2.9510    4.6121 C   0  0  0  0  0  0  0  0  0  0  0  0
   -3.0310   -3.7840    3.9213 C   0  0  0  0  0  0  0  0  0  0  0  0
   -3.6273   -4.7945    2.6242 Cl  0  0  0  0  0  0  0  0  0  0  0  0
   -1.6726   -3.8117    4.2421 C   0  0  0  0  0  0  0  0  0  0  0  0
   -1.1942   -2.9962    5.2679 C   0  0  0  0  0  0  0  0  0  0  0  0
   -1.1034    0.0291    3.9596 C   0  0  0  0  0  0  0  0  0  0  0  0
   -2.1205    0.2364    4.5926 O   0  0  0  0  0  0  0  0  0  0  0  0
   -5.3745    1.5239    1.3900 H   0  0  0  0  0  0  0  0  0  0  0  0
   -3.0706    1.8362    2.3717 H   0  0  0  0  0  0  0  0  0  0  0  0
   -2.1737   -2.2897    1.5502 H   0  0  0  0  0  0  0  0  0  0  0  0
   -4.4716   -2.6081    0.6007 H   0  0  0  0  0  0  0  0  0  0  0  0
   -1.9468    1.0159   -0.7240 Au  0  0  0  0  0  0  0  0  0  0  0  0
    1.5211   -0.1456    6.1432 H   0  0  0  0  0  0  0  0  0  0  0  0
    0.6858    0.4506    8.6234 H   0  0  0  0  0  0  0  0  0  0  0  0
   -1.4133   -0.3904   10.1516 H   0  0  0  0  0  0  0  0  0  0  0  0
   -2.9910   -1.8692    8.4828 H   0  0  0  0  0  0  0  0  0  0  0  0
   -4.0928   -1.4277    6.1297 H   0  0  0  0  0  0  0  0  0  0  0  0
   -4.9695   -2.9297    4.3374 H   0  0  0  0  0  0  0  0  0  0  0  0
   -0.9971   -4.4762    3.7019 H   0  0  0  0  0  0  0  0  0  0  0  0
   -0.1382   -3.0230    5.5361 H   0  0  0  0  0  0  0  0  0  0  0  0
  1  2  1  0  0  0  0
  2  7  2  0  0  0  0
  2  3  1  0  0  0  0
  3  4  2  0  0  0  0
  4  5  1  0  0  0  0
  4 31  1  0  0  0  0
  5  8  1  0  0  0  0
  6 32  1  0  0  0  0
  6  5  2  0  0  0  0
  7  6  1  0  0  0  0
  8 28  1  0  0  0  0
  9 11  2  0  0  0  0
  9  8  1  0  0  0  0
 10  9  1  0  0  0  0
 11 12  2  0  0  0  0
 12 13  2  0  0  0  0
 12 14  1  0  0  0  0
 14 15  1  1  0  0  0
 15 35  1  0  0  0  0
 15 16  1  0  0  0  0
 16 20  1  0  0  0  0
 16 17  2  0  0  0  0
 17 36  1  0  0  0  0
 17 18  1  0  0  0  0
 18 37  1  0  0  0  0
 19 38  1  0  0  0  0
 19 18  2  0  0  0  0
 20 19  1  0  0  0  0
 21 20  1  0  0  0  0
 22 21  1  0  0  0  0
 22 39  1  0  0  0  0
 23 22  2  0  0  0  0
 24 26  2  0  0  0  0
 24 23  1  0  0  0  0
 25 24  1  0  0  0  0
 26 27  1  0  0  0  0
 27 42  1  0  0  0  0
 27 21  2  0  0  0  0
 28 14  1  0  0  0  0
 28 29  2  0  0  0  0
 30  3  1  0  0  0  0
 33  7  1  0  0  0  0
 34 10  1  0  0  0  0
 40 23  1  0  0  0  0
 41 26  1  0  0  0  0
M  RAD  2  14   2  15   2
M  END
