000-742-134.xyz
 OpenBabel07262113343D
Cc1cccc(c1)N1C(=NC(=O)/C(=C\c2c[nH]c3c2cccc3)/C1=O)S
 41 44  0  0  0  0  0  0  0  0999 V2000
    4.7102   -2.5603   -0.1671 C   0  0  0  0  0  0  0  0  0  0  0  0
    4.1327   -1.2435    0.2854 C   0  0  0  0  0  0  0  0  0  0  0  0
    4.7056   -0.0215   -0.0939 C   0  0  0  0  0  0  0  0  0  0  0  0
    4.1593    1.1954    0.3253 C   0  0  0  0  0  0  0  0  0  0  0  0
    3.0233    1.2138    1.1319 C   0  0  0  0  0  0  0  0  0  0  0  0
    2.4422   -0.0001    1.5077 C   0  0  0  0  0  0  0  0  0  0  0  0
    2.9916   -1.2146    1.0988 C   0  0  0  0  0  0  0  0  0  0  0  0
    1.2625    0.0000    2.3340 N   0  0  0  0  0  0  0  0  0  0  0  0
    0.0000    0.0000    1.7733 C   0  0  0  0  0  0  0  0  0  0  0  0
    0.0000    0.0000    0.0000 S   0  0  0  0  0  0  0  0  0  0  0  0
   -1.1058    0.0002    2.4432 N   0  0  0  0  0  0  0  0  0  0  0  0
   -1.1134    0.0005    3.8364 C   0  0  0  0  0  0  0  0  0  0  0  0
   -2.1879    0.0009    4.4251 O   0  0  0  0  0  0  0  0  0  0  0  0
    0.1923    0.0001    4.5332 C   0  0  0  0  0  0  0  0  0  0  0  0
    0.3906    0.0006    5.8983 C   0  0  0  0  0  0  0  0  0  0  0  0
   -0.4498    0.0018    7.0457 C   0  0  0  0  0  0  0  0  0  0  0  0
   -1.8468    0.0027    7.1739 C   0  0  0  0  0  0  0  0  0  0  0  0
   -2.1807    0.0039    8.4882 N   0  0  0  0  0  0  0  0  0  0  0  0
   -1.0418    0.0037    9.2863 C   0  0  0  0  0  0  0  0  0  0  0  0
   -0.9112    0.0046   10.6774 C   0  0  0  0  0  0  0  0  0  0  0  0
    0.3824    0.0042   11.1967 C   0  0  0  0  0  0  0  0  0  0  0  0
    1.5064    0.0029   10.3467 C   0  0  0  0  0  0  0  0  0  0  0  0
    1.3645    0.0020    8.9603 C   0  0  0  0  0  0  0  0  0  0  0  0
    0.0735    0.0024    8.4113 C   0  0  0  0  0  0  0  0  0  0  0  0
    1.4416   -0.0013    3.7397 C   0  0  0  0  0  0  0  0  0  0  0  0
    2.5697   -0.0036    4.1939 O   0  0  0  0  0  0  0  0  0  0  0  0
    4.9099   -3.2233    0.6901 H   0  0  0  0  0  0  0  0  0  0  0  0
    5.6527   -2.4203   -0.7156 H   0  0  0  0  0  0  0  0  0  0  0  0
    4.0090   -3.0924   -0.8315 H   0  0  0  0  0  0  0  0  0  0  0  0
    5.5969   -0.0232   -0.7267 H   0  0  0  0  0  0  0  0  0  0  0  0
    4.6252    2.1352    0.0207 H   0  0  0  0  0  0  0  0  0  0  0  0
    2.5802    2.1516    1.4700 H   0  0  0  0  0  0  0  0  0  0  0  0
    2.5150   -2.1442    1.4173 H   0  0  0  0  0  0  0  0  0  0  0  0
   -2.3074    0.0072   -0.2582 Au  0  0  0  0  0  0  0  0  0  0  0  0
    1.4576   -0.0000    6.1471 H   0  0  0  0  0  0  0  0  0  0  0  0
   -2.5760    0.0025    6.3695 H   0  0  0  0  0  0  0  0  0  0  0  0
   -3.1316    0.0048    8.8351 H   0  0  0  0  0  0  0  0  0  0  0  0
   -1.7853    0.0057   11.3324 H   0  0  0  0  0  0  0  0  0  0  0  0
    0.5265    0.0048   12.2794 H   0  0  0  0  0  0  0  0  0  0  0  0
    2.5069    0.0026   10.7852 H   0  0  0  0  0  0  0  0  0  0  0  0
    2.2459    0.0011    8.3150 H   0  0  0  0  0  0  0  0  0  0  0  0
  1  2  1  0  0  0  0
  1 27  1  0  0  0  0
  2  7  1  0  0  0  0
  3  2  2  0  0  0  0
  3  4  1  0  0  0  0
  4  5  2  0  0  0  0
  5 32  1  0  0  0  0
  5  6  1  0  0  0  0
  6  8  1  0  0  0  0
  7 33  1  0  0  0  0
  7  6  2  0  0  0  0
  8 25  1  0  0  0  0
  9  8  1  0  0  0  0
  9 11  2  0  0  0  0
 10  9  1  0  0  0  0
 11 12  2  0  0  0  0
 12 13  2  0  0  0  0
 12 14  1  0  0  0  0
 14 15  2  0  0  0  0
 15 35  1  0  0  0  0
 15 16  1  0  0  0  0
 16 17  2  0  0  0  0
 16 24  1  0  0  0  0
 17 18  1  0  0  0  0
 18 37  1  0  0  0  0
 18 19  1  0  0  0  0
 19 20  2  0  0  0  0
 20 21  1  0  0  0  0
 20 38  1  0  0  0  0
 21 39  1  0  0  0  0
 22 40  1  0  0  0  0
 22 21  2  0  0  0  0
 23 22  1  0  0  0  0
 24 23  2  0  0  0  0
 24 19  1  0  0  0  0
 25 26  2  0  0  0  0
 25 14  1  0  0  0  0
 28  1  1  0  0  0  0
 29  1  1  0  0  0  0
 30  3  1  0  0  0  0
 31  4  1  0  0  0  0
 34 10  1  0  0  0  0
 36 17  1  0  0  0  0
 41 23  1  0  0  0  0
M  END
