000-733-891.xyz
 OpenBabel07262113343D
SC1=NC(=O)/C(=C\c2ccc(o2)I)/S1
 18 19  0  0  0  0  0  0  0  0999 V2000
    0.0000    0.0000    0.0000 S   0  0  0  0  0  0  0  0  0  0  0  0
    0.0000   -0.0000    1.7490 C   0  0  0  0  0  0  0  0  0  0  0  0
   -1.1116    0.0001    2.3917 N   0  0  0  0  0  0  0  0  0  0  0  0
   -0.9383    0.0002    3.7859 C   0  0  0  0  0  0  0  0  0  0  0  0
   -1.8563    0.0003    4.5788 O   0  0  0  0  0  0  0  0  0  0  0  0
    0.5165    0.0001    4.1696 C   0  0  0  0  0  0  0  0  0  0  0  0
    1.5067    0.0000    2.7004 S   0  0  0  0  0  0  0  0  0  0  0  0
    1.0720    0.0002    5.4130 C   0  0  0  0  0  0  0  0  0  0  0  0
    0.4769    0.0003    6.7128 C   0  0  0  0  0  0  0  0  0  0  0  0
   -0.7927    0.0002    7.2686 C   0  0  0  0  0  0  0  0  0  0  0  0
   -0.6289    0.0003    8.6805 C   0  0  0  0  0  0  0  0  0  0  0  0
    0.7290    0.0004    8.8994 C   0  0  0  0  0  0  0  0  0  0  0  0
    1.8323    0.0004   10.6606 I   0  0  0  0  0  0  0  0  0  0  0  0
    1.4058    0.0004    7.7416 O   0  0  0  0  0  0  0  0  0  0  0  0
    2.2494   -0.0014   -0.5116 Au  0  0  0  0  0  0  0  0  0  0  0  0
    2.1653    0.0002    5.4680 H   0  0  0  0  0  0  0  0  0  0  0  0
   -1.7120    0.0002    6.6934 H   0  0  0  0  0  0  0  0  0  0  0  0
   -1.4059    0.0003    9.4402 H   0  0  0  0  0  0  0  0  0  0  0  0
  1  2  1  0  0  0  0
  2  3  2  0  0  0  0
  2  7  1  0  0  0  0
  3  4  2  0  0  0  0
  4  6  1  0  0  0  0
  4  5  2  0  0  0  0
  6  8  2  0  0  0  0
  7  6  1  0  0  0  0
  8 16  1  0  0  0  0
  8  9  1  0  0  0  0
  9 10  2  0  0  0  0
  9 14  1  0  0  0  0
 10 11  1  0  0  0  0
 11 12  2  0  0  0  0
 11 18  1  0  0  0  0
 12 13  1  0  0  0  0
 14 12  1  0  0  0  0
 15  1  1  0  0  0  0
 17 10  1  0  0  0  0
M  END
