000-754-515.xyz
 OpenBabel07262113353D
SC1=NC(=O)/C(=C\c2ccc(o2)c2cccc(c2)[N+](=O)[O-])/C(=N1)O
 33 35  0  0  0  0  0  0  0  0999 V2000
   -2.6859   -0.1098    3.9869 O   0  0  0  0  0  0  0  0  0  0  0  0
   -1.4363   -0.1640    3.5039 C   0  0  0  0  0  0  0  0  0  0  0  0
   -1.2914    0.0405    2.2368 N   0  0  0  0  0  0  0  0  0  0  0  0
   -0.0000    0.0000    1.7577 C   0  0  0  0  0  0  0  0  0  0  0  0
    0.0000    0.0000    0.0000 S   0  0  0  0  0  0  0  0  0  0  0  0
    1.1058   -0.0000    2.4469 N   0  0  0  0  0  0  0  0  0  0  0  0
    1.0386   -0.0647    3.8290 C   0  0  0  0  0  0  0  0  0  0  0  0
    2.0049    0.1685    4.5319 O   0  0  0  0  0  0  0  0  0  0  0  0
   -0.3058   -0.4595    4.3922 C   0  0  0  0  0  0  0  0  0  0  0  0
   -0.5387   -1.1310    5.5678 C   0  0  0  0  0  0  0  0  0  0  0  0
    0.3177   -1.6315    6.5850 C   0  0  0  0  0  0  0  0  0  0  0  0
   -0.0024   -2.3737    7.7222 C   0  0  0  0  0  0  0  0  0  0  0  0
    1.2112   -2.6385    8.3946 C   0  0  0  0  0  0  0  0  0  0  0  0
    2.2098   -2.0453    7.6326 C   0  0  0  0  0  0  0  0  0  0  0  0
    1.6621   -1.4533    6.5567 O   0  0  0  0  0  0  0  0  0  0  0  0
    3.6527   -1.9239    7.7624 C   0  0  0  0  0  0  0  0  0  0  0  0
    4.3758   -1.1502    6.8282 C   0  0  0  0  0  0  0  0  0  0  0  0
    5.7607   -1.0293    6.9443 C   0  0  0  0  0  0  0  0  0  0  0  0
    6.4481   -1.6641    7.9808 C   0  0  0  0  0  0  0  0  0  0  0  0
    5.7146   -2.4219    8.8950 C   0  0  0  0  0  0  0  0  0  0  0  0
    4.3350   -2.5656    8.8074 C   0  0  0  0  0  0  0  0  0  0  0  0
    6.4259   -3.1012    9.9990 N   0  0  0  0  0  0  0  0  0  0  0  0
    7.6360   -2.9648   10.0563 O   0  0  0  0  0  0  0  0  0  0  0  0
    5.7560   -3.7547   10.7825 O   0  0  0  0  0  0  0  0  0  0  0  0
   -2.6632   -0.0392    4.9508 H   0  0  0  0  0  0  0  0  0  0  0  0
    2.2768   -0.0540   -0.3770 Au  0  0  0  0  0  0  0  0  0  0  0  0
   -1.5770   -1.4138    5.7751 H   0  0  0  0  0  0  0  0  0  0  0  0
   -1.0022   -2.6839    8.0190 H   0  0  0  0  0  0  0  0  0  0  0  0
    1.3451   -3.1855    9.3241 H   0  0  0  0  0  0  0  0  0  0  0  0
    3.8355   -0.6484    6.0216 H   0  0  0  0  0  0  0  0  0  0  0  0
    6.3118   -0.4289    6.2179 H   0  0  0  0  0  0  0  0  0  0  0  0
    7.5281   -1.5860    8.0977 H   0  0  0  0  0  0  0  0  0  0  0  0
    3.8213   -3.1748    9.5495 H   0  0  0  0  0  0  0  0  0  0  0  0
  1 25  1  0  0  0  0
  2  1  1  0  0  0  0
  2  9  1  0  0  0  0
  3  2  2  0  0  0  0
  4  3  2  0  0  0  0
  4  6  2  0  0  0  0
  5  4  1  0  0  0  0
  6  7  2  0  0  0  0
  7  9  1  0  0  0  0
  7  8  2  0  0  0  0
  9 10  2  0  0  0  0
 10 27  1  0  0  0  0
 10 11  1  0  0  0  0
 11 12  2  0  0  0  0
 12 28  1  0  0  0  0
 12 13  1  0  0  0  0
 13 29  1  0  0  0  0
 14 16  1  0  0  0  0
 14 13  2  0  0  0  0
 15 11  1  0  0  0  0
 15 14  1  0  0  0  0
 16 21  2  0  0  0  0
 17 18  2  0  0  0  0
 17 16  1  0  0  0  0
 18 19  1  0  0  0  0
 19 32  1  0  0  0  0
 19 20  2  0  0  0  0
 20 22  1  0  0  0  0
 21 20  1  0  0  0  0
 21 33  1  0  0  0  0
 22 23  2  0  0  0  0
 22 24  2  0  0  0  0
 26  5  1  0  0  0  0
 30 17  1  0  0  0  0
 31 18  1  0  0  0  0
M  END
