000-804-347.xyz
 OpenBabel07262113363D
Fc1ccc(cc1)N1C(=NC(=O)/C(=C\NN2CCCCC2)/C1=O)S
 41 43  0  0  0  0  0  0  0  0999 V2000
   -5.8032   -0.0131   -0.8415 F   0  0  0  0  0  0  0  0  0  0  0  0
   -4.7077   -0.0099   -0.0720 C   0  0  0  0  0  0  0  0  0  0  0  0
   -4.1452   -1.2267    0.3090 C   0  0  0  0  0  0  0  0  0  0  0  0
   -3.0041   -1.2177    1.1091 C   0  0  0  0  0  0  0  0  0  0  0  0
   -2.4396   -0.0028    1.5085 C   0  0  0  0  0  0  0  0  0  0  0  0
   -3.0229    1.2084    1.1254 C   0  0  0  0  0  0  0  0  0  0  0  0
   -4.1644    1.2103    0.3258 C   0  0  0  0  0  0  0  0  0  0  0  0
   -1.2633    0.0006    2.3331 N   0  0  0  0  0  0  0  0  0  0  0  0
    0.0000   -0.0000    1.7746 C   0  0  0  0  0  0  0  0  0  0  0  0
    0.0000    0.0000    0.0000 S   0  0  0  0  0  0  0  0  0  0  0  0
    1.1107   -0.0000    2.4428 N   0  0  0  0  0  0  0  0  0  0  0  0
    1.0961   -0.0005    3.8310 C   0  0  0  0  0  0  0  0  0  0  0  0
    2.1602   -0.0075    4.4617 O   0  0  0  0  0  0  0  0  0  0  0  0
   -0.2055    0.0094    4.5000 C   0  0  0  0  0  0  0  0  0  0  0  0
   -0.2966    0.0221    5.8881 C   0  0  0  0  0  0  0  0  0  0  0  0
    0.7538    0.0251    6.6951 N   0  0  0  0  0  0  0  0  0  0  0  0
    0.6089    0.0585    8.0785 N   0  0  0  0  0  0  0  0  0  0  0  0
    1.0521    1.3426    8.6673 C   0  0  0  0  0  0  0  0  0  0  0  0
    2.4740    1.2726    9.2249 C   0  0  0  0  0  0  0  0  0  0  0  0
    2.5555    0.2249   10.3564 C   0  0  0  0  0  0  0  0  0  0  0  0
    1.4999   -0.8845   10.1657 C   0  0  0  0  0  0  0  0  0  0  0  0
    1.2233   -1.1329    8.6867 C   0  0  0  0  0  0  0  0  0  0  0  0
   -1.4493    0.0082    3.7492 C   0  0  0  0  0  0  0  0  0  0  0  0
   -2.5773    0.0137    4.2067 O   0  0  0  0  0  0  0  0  0  0  0  0
   -4.6062   -2.1583   -0.0222 H   0  0  0  0  0  0  0  0  0  0  0  0
   -2.5402   -2.1531    1.4250 H   0  0  0  0  0  0  0  0  0  0  0  0
   -2.5737    2.1466    1.4541 H   0  0  0  0  0  0  0  0  0  0  0  0
   -4.6401    2.1391    0.0074 H   0  0  0  0  0  0  0  0  0  0  0  0
    2.3057    0.0017   -0.2670 Au  0  0  0  0  0  0  0  0  0  0  0  0
   -1.2802    0.0340    6.3666 H   0  0  0  0  0  0  0  0  0  0  0  0
    1.6765    0.0022    6.2189 H   0  0  0  0  0  0  0  0  0  0  0  0
    0.3481    1.6168    9.4711 H   0  0  0  0  0  0  0  0  0  0  0  0
    0.9571    2.1099    7.8870 H   0  0  0  0  0  0  0  0  0  0  0  0
    2.7913    2.2655    9.5805 H   0  0  0  0  0  0  0  0  0  0  0  0
    3.1623    1.0054    8.4053 H   0  0  0  0  0  0  0  0  0  0  0  0
    2.4057    0.7078   11.3354 H   0  0  0  0  0  0  0  0  0  0  0  0
    3.5655   -0.2151   10.3798 H   0  0  0  0  0  0  0  0  0  0  0  0
    1.8271   -1.8225   10.6392 H   0  0  0  0  0  0  0  0  0  0  0  0
    0.5522   -0.6043   10.6540 H   0  0  0  0  0  0  0  0  0  0  0  0
    0.5465   -1.9899    8.5405 H   0  0  0  0  0  0  0  0  0  0  0  0
    2.1756   -1.3853    8.1738 H   0  0  0  0  0  0  0  0  0  0  0  0
  1  2  1  0  0  0  0
  2  3  2  0  0  0  0
  2  7  1  0  0  0  0
  3  4  1  0  0  0  0
  4 26  1  0  0  0  0
  4  5  2  0  0  0  0
  5  8  1  0  0  0  0
  6 27  1  0  0  0  0
  6  5  1  0  0  0  0
  7  6  2  0  0  0  0
  8 23  1  0  0  0  0
  9  8  1  0  0  0  0
  9 11  2  0  0  0  0
 10  9  1  0  0  0  0
 11 12  2  0  0  0  0
 12 13  2  0  0  0  0
 12 14  1  0  0  0  0
 14 15  2  0  0  0  0
 15 30  1  0  0  0  0
 15 16  1  0  0  0  0
 16 17  1  0  0  0  0
 17 18  1  0  0  0  0
 17 22  1  0  0  0  0
 18 19  1  0  0  0  0
 18 32  1  0  0  0  0
 19 34  1  0  0  0  0
 19 20  1  0  0  0  0
 20 37  1  0  0  0  0
 20 36  1  0  0  0  0
 21 20  1  0  0  0  0
 21 38  1  0  0  0  0
 21 39  1  0  0  0  0
 22 21  1  0  0  0  0
 23 24  2  0  0  0  0
 23 14  1  0  0  0  0
 25  3  1  0  0  0  0
 28  7  1  0  0  0  0
 29 10  1  0  0  0  0
 31 16  1  0  0  0  0
 33 18  1  0  0  0  0
 35 19  1  0  0  0  0
 40 22  1  0  0  0  0
 41 22  1  0  0  0  0
M  END
