000-733-283.xyz
 OpenBabel07262113343D
COc1cc(ccc1O)/C=C\1/SC(=NC1=O)S
 26 27  0  0  0  0  0  0  0  0999 V2000
    3.6906    0.0014    9.7823 C   0  0  0  0  0  0  0  0  0  0  0  0
    2.3260    0.0009   10.1253 O   0  0  0  0  0  0  0  0  0  0  0  0
    1.4071    0.0005    9.1308 C   0  0  0  0  0  0  0  0  0  0  0  0
    1.6924    0.0005    7.7711 C   0  0  0  0  0  0  0  0  0  0  0  0
    0.6674    0.0000    6.7849 C   0  0  0  0  0  0  0  0  0  0  0  0
    1.1164    0.0001    5.4034 C   0  0  0  0  0  0  0  0  0  0  0  0
    0.5005    0.0001    4.1866 C   0  0  0  0  0  0  0  0  0  0  0  0
    1.4941   -0.0000    2.7052 S   0  0  0  0  0  0  0  0  0  0  0  0
   -0.0000   -0.0000    1.7519 C   0  0  0  0  0  0  0  0  0  0  0  0
    0.0000    0.0000    0.0000 S   0  0  0  0  0  0  0  0  0  0  0  0
   -1.1147    0.0001    2.3891 N   0  0  0  0  0  0  0  0  0  0  0  0
   -0.9537    0.0002    3.7861 C   0  0  0  0  0  0  0  0  0  0  0  0
   -1.8944    0.0003    4.5529 O   0  0  0  0  0  0  0  0  0  0  0  0
   -0.6714   -0.0006    7.2200 C   0  0  0  0  0  0  0  0  0  0  0  0
   -0.9600   -0.0008    8.5829 C   0  0  0  0  0  0  0  0  0  0  0  0
    0.0499   -0.0002    9.5475 C   0  0  0  0  0  0  0  0  0  0  0  0
   -0.1891   -0.0004   10.8752 O   0  0  0  0  0  0  0  0  0  0  0  0
    3.9673    0.8995    9.2000 H   0  0  0  0  0  0  0  0  0  0  0  0
    3.9678   -0.8964    9.2000 H   0  0  0  0  0  0  0  0  0  0  0  0
    4.2514    0.0016   10.7261 H   0  0  0  0  0  0  0  0  0  0  0  0
    2.7310    0.0009    7.4414 H   0  0  0  0  0  0  0  0  0  0  0  0
    2.2108    0.0003    5.3366 H   0  0  0  0  0  0  0  0  0  0  0  0
    2.2498   -0.0021   -0.5074 Au  0  0  0  0  0  0  0  0  0  0  0  0
   -1.4720   -0.0009    6.4844 H   0  0  0  0  0  0  0  0  0  0  0  0
   -2.0034   -0.0013    8.9137 H   0  0  0  0  0  0  0  0  0  0  0  0
   -1.1443   -0.0010   11.0240 H   0  0  0  0  0  0  0  0  0  0  0  0
  1  2  1  0  0  0  0
  1 20  1  0  0  0  0
  3 16  1  0  0  0  0
  3  2  1  0  0  0  0
  4  3  2  0  0  0  0
  5 14  2  0  0  0  0
  5  4  1  0  0  0  0
  6  5  1  0  0  0  0
  7  6  2  0  0  0  0
  8  7  1  0  0  0  0
  9 11  2  0  0  0  0
  9  8  1  0  0  0  0
 10  9  1  0  0  0  0
 11 12  2  0  0  0  0
 12  7  1  0  0  0  0
 12 13  2  0  0  0  0
 14 15  1  0  0  0  0
 15 25  1  0  0  0  0
 15 16  2  0  0  0  0
 16 17  1  0  0  0  0
 17 26  1  0  0  0  0
 18  1  1  0  0  0  0
 19  1  1  0  0  0  0
 21  4  1  0  0  0  0
 22  6  1  0  0  0  0
 23 10  1  0  0  0  0
 24 14  1  0  0  0  0
M  END
