000-837-361.xyz
 OpenBabel07262113373D
O=C1N=C(S)N(C(=O)/C/1=C/c1cc(n(c1C)c1cccnc1)C)c1ccccc1
 47 50  0  0  1  0  0  0  0  0999 V2000
    4.6697    1.2066    8.4373 C   0  0  0  0  0  0  0  0  0  0  0  0
    3.2617    1.1750    7.9474 C   0  0  0  0  0  0  0  0  0  0  0  0
    2.7414    0.7914    6.7429 C   0  0  0  0  0  0  0  0  0  0  0  0
    1.3101    0.9842    6.7875 C   0  0  0  0  0  0  0  0  0  0  0  0
    0.2820    0.7664    5.8257 C   0  0  0  0  0  0  0  0  0  0  0  0
    0.2492    0.3713    4.5061 C   0  0  0  0  0  0  0  0  0  0  0  0
    1.4048   -0.0170    3.6599 C   0  0  0  0  0  0  0  0  0  0  0  0
    2.5052   -0.3043    4.0966 O   0  0  0  0  0  0  0  0  0  0  0  0
    1.1804    0.0000    2.2813 N   0  0  0  0  0  0  0  0  0  0  0  0
   -0.0000    0.0000    1.7812 C   0  0  0  0  0  0  0  0  0  0  0  0
    0.0000    0.0000    0.0000 S   0  0  0  0  0  0  0  0  0  0  0  0
   -1.1710   -0.0125    2.5390 N   0  0  0  0  0  0  0  0  0  0  0  0
   -1.1099    0.2955    3.9281 C   0  0  0  0  0  0  0  0  0  0  0  0
   -2.1460    0.4516    4.5489 O   0  0  0  0  0  0  0  0  0  0  0  0
   -2.4510   -0.3545    1.9994 C   0  0  0  0  0  0  0  0  0  0  0  0
   -3.4635    0.6119    1.9134 C   0  0  0  0  0  0  0  0  0  0  0  0
   -4.6869    0.2774    1.3240 C   0  0  0  0  0  0  0  0  0  0  0  0
   -4.9017   -1.0169    0.8325 C   0  0  0  0  0  0  0  0  0  0  0  0
   -3.8987   -1.9815    0.9507 C   0  0  0  0  0  0  0  0  0  0  0  0
   -2.6753   -1.6540    1.5412 C   0  0  0  0  0  0  0  0  0  0  0  0
    1.0099    1.4958    8.0715 C   0  0  0  0  0  0  0  0  0  0  0  0
   -0.2896    1.8744    8.6976 C   0  0  0  0  0  0  0  0  0  0  0  0
    2.1909    1.6062    8.7535 N   0  0  0  0  0  0  0  0  0  0  0  0
    2.3247    2.0828   10.0860 C   0  0  1  0  0  0  0  0  0  0  0  0
    2.5936    1.2061   11.1405 C   0  0  0  0  0  0  0  0  0  0  0  0
    2.7199    1.7347   12.4246 C   0  0  0  0  0  0  0  0  0  0  0  0
    2.5627    3.1139   12.5980 C   0  0  0  0  0  0  0  0  0  0  0  0
    2.3040    3.9542   11.5933 N   0  0  0  0  0  0  0  0  0  0  0  0
    2.1942    3.4497   10.3657 C   0  0  0  0  0  0  0  0  0  0  0  0
    5.3417    0.8948    7.6267 H   0  0  0  0  0  0  0  0  0  0  0  0
    4.9690    2.2174    8.7619 H   0  0  0  0  0  0  0  0  0  0  0  0
    4.8350    0.5307    9.2932 H   0  0  0  0  0  0  0  0  0  0  0  0
    3.2824    0.3964    5.8908 H   0  0  0  0  0  0  0  0  0  0  0  0
   -0.7248    0.9794    6.1983 H   0  0  0  0  0  0  0  0  0  0  0  0
   -2.0163    0.9134   -0.6799 Au  0  0  0  0  0  0  0  0  0  0  0  0
   -3.2859    1.6100    2.3134 H   0  0  0  0  0  0  0  0  0  0  0  0
   -5.4772    1.0285    1.2568 H   0  0  0  0  0  0  0  0  0  0  0  0
   -5.8568   -1.2732    0.3688 H   0  0  0  0  0  0  0  0  0  0  0  0
   -4.0652   -2.9948    0.5790 H   0  0  0  0  0  0  0  0  0  0  0  0
   -1.8774   -2.3937    1.6217 H   0  0  0  0  0  0  0  0  0  0  0  0
   -0.3760    2.9646    8.8407 H   0  0  0  0  0  0  0  0  0  0  0  0
   -1.1328    1.5529    8.0743 H   0  0  0  0  0  0  0  0  0  0  0  0
   -0.4033    1.4100    9.6905 H   0  0  0  0  0  0  0  0  0  0  0  0
    2.6935    0.1361   10.9473 H   0  0  0  0  0  0  0  0  0  0  0  0
    2.9301    1.0896   13.2801 H   0  0  0  0  0  0  0  0  0  0  0  0
    2.6515    3.5571   13.5962 H   0  0  0  0  0  0  0  0  0  0  0  0
    1.9945    4.1490    9.5458 H   0  0  0  0  0  0  0  0  0  0  0  0
  1 31  1  0  0  0  0
  1 32  1  0  0  0  0
  2  1  1  0  0  0  0
  2 23  1  0  0  0  0
  3  4  1  0  0  0  0
  3  2  2  0  0  0  0
  4 21  2  0  0  0  0
  5 34  1  0  0  0  0
  5  4  1  0  0  0  0
  6  5  2  0  0  0  0
  7  8  2  0  0  0  0
  7  6  1  0  0  0  0
  9  7  2  0  0  0  0
 10  9  2  0  0  0  0
 10 12  1  0  0  0  0
 11 10  1  0  0  0  0
 12 13  1  0  0  0  0
 13  6  1  0  0  0  0
 13 14  2  0  0  0  0
 15 12  1  0  0  0  0
 16 15  1  0  0  0  0
 16 36  1  0  0  0  0
 17 16  2  0  0  0  0
 18 19  2  0  0  0  0
 18 17  1  0  0  0  0
 19 20  1  0  0  0  0
 20 40  1  0  0  0  0
 20 15  2  0  0  0  0
 21 22  1  0  0  0  0
 21 23  1  0  0  0  0
 22 41  1  0  0  0  0
 22 43  1  0  0  0  0
 24 23  1  6  0  0  0
 24 29  1  0  0  0  0
 24 25  1  0  0  0  0
 25 26  2  0  0  0  0
 26 27  1  0  0  0  0
 26 45  1  0  0  0  0
 27 46  1  0  0  0  0
 28 27  2  0  0  0  0
 29 28  2  0  0  0  0
 30  1  1  0  0  0  0
 33  3  1  0  0  0  0
 35 11  1  0  0  0  0
 37 17  1  0  0  0  0
 38 18  1  0  0  0  0
 39 19  1  0  0  0  0
 42 22  1  0  0  0  0
 44 25  1  0  0  0  0
 47 29  1  0  0  0  0
M  RAD  1  24   2
M  END
