000-738-047.xyz
 OpenBabel07262113343D
O=C1N=C(S)N(C(=O)/C/1=C/c1c(C)[nH]c2c1cccc2)c1ccccc1
 41 44  0  0  1  0  0  0  0  0999 V2000
   -2.3513   -2.1824    5.9605 C   0  0  0  0  0  0  0  0  0  0  0  0
   -1.6810   -1.3761    7.0097 C   0  0  0  0  0  0  0  0  0  0  0  0
   -2.1254   -1.4085    8.3006 N   0  0  0  0  0  0  0  0  0  0  0  0
   -1.2908   -0.6822    9.1394 C   0  0  0  0  0  0  0  0  0  0  0  0
   -1.3671   -0.4461   10.5134 C   0  0  0  0  0  0  0  0  0  0  0  0
   -0.3538    0.3225   11.0871 C   0  0  0  0  0  0  0  0  0  0  0  0
    0.6959    0.8417   10.3046 C   0  0  0  0  0  0  0  0  0  0  0  0
    0.7555    0.6098    8.9309 C   0  0  0  0  0  0  0  0  0  0  0  0
   -0.2453   -0.1696    8.3325 C   0  0  0  0  0  0  0  0  0  0  0  0
   -0.5107   -0.5924    6.9629 C   0  0  0  0  0  0  0  0  0  0  0  0
    0.3780   -0.3352    5.8825 C   0  0  0  0  0  0  0  0  0  0  0  0
    0.1968   -0.2388    4.5196 C   0  0  1  0  0  0  0  0  0  0  0  0
   -1.1063   -0.0306    3.8406 C   0  0  0  0  0  0  0  0  0  0  0  0
   -2.1521    0.1453    4.4482 O   0  0  0  0  0  0  0  0  0  0  0  0
   -1.1036   -0.0027    2.4456 N   0  0  0  0  0  0  0  0  0  0  0  0
    0.0000   -0.0000    1.7739 C   0  0  0  0  0  0  0  0  0  0  0  0
    0.0000    0.0000    0.0000 S   0  0  0  0  0  0  0  0  0  0  0  0
    1.2649   -0.0000    2.3342 N   0  0  0  0  0  0  0  0  0  0  0  0
    1.4451   -0.1289    3.7350 C   0  0  0  0  0  0  0  0  0  0  0  0
    2.5717   -0.1543    4.1910 O   0  0  0  0  0  0  0  0  0  0  0  0
    2.4428    0.0852    1.5115 C   0  0  0  0  0  0  0  0  0  0  0  0
    2.9098    1.3375    1.1042 C   0  0  0  0  0  0  0  0  0  0  0  0
    4.0468    1.4193    0.2995 C   0  0  0  0  0  0  0  0  0  0  0  0
    4.7163    0.2544   -0.0863 C   0  0  0  0  0  0  0  0  0  0  0  0
    4.2498   -0.9950    0.3340 C   0  0  0  0  0  0  0  0  0  0  0  0
    3.1116   -1.0824    1.1358 C   0  0  0  0  0  0  0  0  0  0  0  0
   -2.8972   -3.0317    6.3998 H   0  0  0  0  0  0  0  0  0  0  0  0
   -3.0377   -1.5488    5.3761 H   0  0  0  0  0  0  0  0  0  0  0  0
   -1.6109   -2.5669    5.2442 H   0  0  0  0  0  0  0  0  0  0  0  0
   -2.9275   -1.9454    8.6052 H   0  0  0  0  0  0  0  0  0  0  0  0
   -2.1854   -0.8459   11.1165 H   0  0  0  0  0  0  0  0  0  0  0  0
   -0.3777    0.5271   12.1598 H   0  0  0  0  0  0  0  0  0  0  0  0
    1.4729    1.4415   10.7837 H   0  0  0  0  0  0  0  0  0  0  0  0
    1.5655    1.0317    8.3319 H   0  0  0  0  0  0  0  0  0  0  0  0
    1.4210   -0.1811    6.1859 H   0  0  0  0  0  0  0  0  0  0  0  0
   -2.3063    0.0148   -0.2619 Au  0  0  0  0  0  0  0  0  0  0  0  0
    2.3740    2.2355    1.4165 H   0  0  0  0  0  0  0  0  0  0  0  0
    4.4123    2.3960   -0.0251 H   0  0  0  0  0  0  0  0  0  0  0  0
    5.6071    0.3203   -0.7153 H   0  0  0  0  0  0  0  0  0  0  0  0
    4.7747   -1.9053    0.0363 H   0  0  0  0  0  0  0  0  0  0  0  0
    2.7321   -2.0482    1.4730 H   0  0  0  0  0  0  0  0  0  0  0  0
  1 27  1  0  0  0  0
  1  2  1  0  0  0  0
  2  3  1  0  0  0  0
  3 30  1  0  0  0  0
  3  4  1  0  0  0  0
  4  5  2  0  0  0  0
  5  6  1  0  0  0  0
  5 31  1  0  0  0  0
  6 32  1  0  0  0  0
  7 33  1  0  0  0  0
  7  6  2  0  0  0  0
  8  7  1  0  0  0  0
  9  8  2  0  0  0  0
  9  4  1  0  0  0  0
 10  2  2  0  0  0  0
 10  9  1  0  0  0  0
 11 35  1  0  0  0  0
 11 10  1  0  0  0  0
 12 11  1  1  0  0  0
 13 14  2  0  0  0  0
 13 12  1  0  0  0  0
 15 13  2  0  0  0  0
 16 18  1  0  0  0  0
 16 15  2  0  0  0  0
 17 16  1  0  0  0  0
 18 19  1  0  0  0  0
 19 20  2  0  0  0  0
 19 12  1  0  0  0  0
 21 18  1  0  0  0  0
 22 37  1  0  0  0  0
 22 21  2  0  0  0  0
 23 22  1  0  0  0  0
 24 23  2  0  0  0  0
 24 25  1  0  0  0  0
 25 26  2  0  0  0  0
 26 41  1  0  0  0  0
 26 21  1  0  0  0  0
 28  1  1  0  0  0  0
 29  1  1  0  0  0  0
 34  8  1  0  0  0  0
 36 17  1  0  0  0  0
 38 23  1  0  0  0  0
 39 24  1  0  0  0  0
 40 25  1  0  0  0  0
M  RAD  2  11   2  12   2
M  END
