000-841-243.xyz
 OpenBabel07262113383D
Fc1ccc(cc1)c1ccc(o1)/C=C\1/C(=O)N=C(N(C1=O)c1ccccc1)S
 41 44  0  0  0  0  0  0  0  0999 V2000
    0.3669   -0.0237   14.5155 F   0  0  0  0  0  0  0  0  0  0  0  0
    0.6741   -0.0203   13.2137 C   0  0  0  0  0  0  0  0  0  0  0  0
    2.0158   -0.0180   12.8330 C   0  0  0  0  0  0  0  0  0  0  0  0
    2.3316   -0.0144   11.4778 C   0  0  0  0  0  0  0  0  0  0  0  0
    1.3174   -0.0133   10.4999 C   0  0  0  0  0  0  0  0  0  0  0  0
   -0.0281   -0.0157   10.9178 C   0  0  0  0  0  0  0  0  0  0  0  0
   -0.3530   -0.0192   12.2715 C   0  0  0  0  0  0  0  0  0  0  0  0
    1.6534   -0.0097    9.0850 C   0  0  0  0  0  0  0  0  0  0  0  0
    2.8643   -0.0075    8.4039 C   0  0  0  0  0  0  0  0  0  0  0  0
    2.5588   -0.0047    7.0280 C   0  0  0  0  0  0  0  0  0  0  0  0
    1.1692   -0.0053    6.9175 C   0  0  0  0  0  0  0  0  0  0  0  0
    0.1859   -0.0035    5.8990 C   0  0  0  0  0  0  0  0  0  0  0  0
    0.2251   -0.0015    4.5249 C   0  0  0  0  0  0  0  0  0  0  0  0
   -1.1062   -0.0003    3.8330 C   0  0  0  0  0  0  0  0  0  0  0  0
   -2.1538    0.0000    4.4545 O   0  0  0  0  0  0  0  0  0  0  0  0
   -1.1059    0.0000    2.4407 N   0  0  0  0  0  0  0  0  0  0  0  0
    0.0000    0.0000    1.7718 C   0  0  0  0  0  0  0  0  0  0  0  0
    0.0000    0.0000    0.0000 S   0  0  0  0  0  0  0  0  0  0  0  0
    1.2675    0.0000    2.3321 N   0  0  0  0  0  0  0  0  0  0  0  0
    1.4575   -0.0008    3.7367 C   0  0  0  0  0  0  0  0  0  0  0  0
    2.5946   -0.0009    4.1755 O   0  0  0  0  0  0  0  0  0  0  0  0
    2.4442    0.0002    1.5019 C   0  0  0  0  0  0  0  0  0  0  0  0
    3.0109    1.2147    1.1075 C   0  0  0  0  0  0  0  0  0  0  0  0
    4.1466    1.2121    0.2970 C   0  0  0  0  0  0  0  0  0  0  0  0
    4.7132    0.0006   -0.1103 C   0  0  0  0  0  0  0  0  0  0  0  0
    4.1458   -1.2112    0.2954 C   0  0  0  0  0  0  0  0  0  0  0  0
    3.0102   -1.2141    1.1059 C   0  0  0  0  0  0  0  0  0  0  0  0
    0.6420   -0.0083    8.1987 O   0  0  0  0  0  0  0  0  0  0  0  0
    2.7907   -0.0189   13.6011 H   0  0  0  0  0  0  0  0  0  0  0  0
    3.3803   -0.0126   11.1762 H   0  0  0  0  0  0  0  0  0  0  0  0
   -0.8193   -0.0148   10.1674 H   0  0  0  0  0  0  0  0  0  0  0  0
   -1.3904   -0.0211   12.6101 H   0  0  0  0  0  0  0  0  0  0  0  0
    3.8549   -0.0079    8.8507 H   0  0  0  0  0  0  0  0  0  0  0  0
    3.2343   -0.0024    6.1807 H   0  0  0  0  0  0  0  0  0  0  0  0
   -0.8385   -0.0041    6.2881 H   0  0  0  0  0  0  0  0  0  0  0  0
   -2.3080    0.0001   -0.2576 Au  0  0  0  0  0  0  0  0  0  0  0  0
    2.5531    2.1498    1.4342 H   0  0  0  0  0  0  0  0  0  0  0  0
    4.5907    2.1591   -0.0174 H   0  0  0  0  0  0  0  0  0  0  0  0
    5.6019    0.0007   -0.7456 H   0  0  0  0  0  0  0  0  0  0  0  0
    4.5893   -2.1580   -0.0203 H   0  0  0  0  0  0  0  0  0  0  0  0
    2.5519   -2.1494    1.4315 H   0  0  0  0  0  0  0  0  0  0  0  0
  2  1  1  0  0  0  0
  3  2  1  0  0  0  0
  3 29  1  0  0  0  0
  4  3  2  0  0  0  0
  5  6  2  0  0  0  0
  5  4  1  0  0  0  0
  6  7  1  0  0  0  0
  7 32  1  0  0  0  0
  7  2  2  0  0  0  0
  8  5  1  0  0  0  0
  9 33  1  0  0  0  0
  9  8  2  0  0  0  0
 10  9  1  0  0  0  0
 11 10  2  0  0  0  0
 11 28  1  0  0  0  0
 12 35  1  0  0  0  0
 12 11  1  0  0  0  0
 13 12  2  0  0  0  0
 14 15  2  0  0  0  0
 14 13  1  0  0  0  0
 16 14  2  0  0  0  0
 17 19  1  0  0  0  0
 17 16  2  0  0  0  0
 18 17  1  0  0  0  0
 19 20  1  0  0  0  0
 20 21  2  0  0  0  0
 20 13  1  0  0  0  0
 22 19  1  0  0  0  0
 23 37  1  0  0  0  0
 23 22  1  0  0  0  0
 24 23  2  0  0  0  0
 25 26  2  0  0  0  0
 25 24  1  0  0  0  0
 26 27  1  0  0  0  0
 27 41  1  0  0  0  0
 27 22  2  0  0  0  0
 28  8  1  0  0  0  0
 30  4  1  0  0  0  0
 31  6  1  0  0  0  0
 34 10  1  0  0  0  0
 36 18  1  0  0  0  0
 38 24  1  0  0  0  0
 39 25  1  0  0  0  0
 40 26  1  0  0  0  0
M  END
