000-160-974.xyz
 OpenBabel07262113323D
SC1=NC(=O)/C(=C\c2cn(nc2c2ccccc2)c2ccccc2)/S1
 38 41  0  0  0  0  0  0  0  0999 V2000
    0.0000    0.0000    0.0000 S   0  0  0  0  0  0  0  0  0  0  0  0
    0.0000   -0.0000    1.7409 C   0  0  0  0  0  0  0  0  0  0  0  0
   -1.0422    0.0014    2.5050 N   0  0  0  0  0  0  0  0  0  0  0  0
   -0.7270    0.0085    3.8706 C   0  0  0  0  0  0  0  0  0  0  0  0
   -1.5737    0.0363    4.7449 O   0  0  0  0  0  0  0  0  0  0  0  0
    0.7551   -0.0153    4.1035 C   0  0  0  0  0  0  0  0  0  0  0  0
    1.5896    0.0000    2.5330 S   0  0  0  0  0  0  0  0  0  0  0  0
    1.4616   -0.0648    5.2669 C   0  0  0  0  0  0  0  0  0  0  0  0
    1.0464   -0.0824    6.6443 C   0  0  0  0  0  0  0  0  0  0  0  0
   -0.2098    0.1033    7.2263 C   0  0  0  0  0  0  0  0  0  0  0  0
   -0.0294    0.1030    8.5688 N   0  0  0  0  0  0  0  0  0  0  0  0
    1.2689   -0.0785    8.9154 N   0  0  0  0  0  0  0  0  0  0  0  0
    1.9378   -0.2011    7.7786 C   0  0  0  0  0  0  0  0  0  0  0  0
    3.3959   -0.4126    7.7939 C   0  0  0  0  0  0  0  0  0  0  0  0
    4.0192   -1.3058    6.9041 C   0  0  0  0  0  0  0  0  0  0  0  0
    5.4022   -1.4958    6.9418 C   0  0  0  0  0  0  0  0  0  0  0  0
    6.1815   -0.8044    7.8725 C   0  0  0  0  0  0  0  0  0  0  0  0
    5.5687    0.0732    8.7731 C   0  0  0  0  0  0  0  0  0  0  0  0
    4.1887    0.2676    8.7356 C   0  0  0  0  0  0  0  0  0  0  0  0
   -1.0179    0.2540    9.5767 C   0  0  0  0  0  0  0  0  0  0  0  0
   -0.6196    0.3743   10.9145 C   0  0  0  0  0  0  0  0  0  0  0  0
   -1.5865    0.5303   11.9074 C   0  0  0  0  0  0  0  0  0  0  0  0
   -2.9448    0.5683   11.5796 C   0  0  0  0  0  0  0  0  0  0  0  0
   -3.3324    0.4437   10.2427 C   0  0  0  0  0  0  0  0  0  0  0  0
   -2.3775    0.2835    9.2381 C   0  0  0  0  0  0  0  0  0  0  0  0
   -2.3011    0.0121   -0.2969 Au  0  0  0  0  0  0  0  0  0  0  0  0
    2.5491   -0.0840    5.1508 H   0  0  0  0  0  0  0  0  0  0  0  0
   -1.1644    0.2431    6.7344 H   0  0  0  0  0  0  0  0  0  0  0  0
    3.4144   -1.8819    6.2014 H   0  0  0  0  0  0  0  0  0  0  0  0
    5.8709   -2.1975    6.2477 H   0  0  0  0  0  0  0  0  0  0  0  0
    7.2635   -0.9534    7.9009 H   0  0  0  0  0  0  0  0  0  0  0  0
    6.1722    0.6124    9.5073 H   0  0  0  0  0  0  0  0  0  0  0  0
    3.7034    0.9528    9.4325 H   0  0  0  0  0  0  0  0  0  0  0  0
    0.4426    0.3395   11.1505 H   0  0  0  0  0  0  0  0  0  0  0  0
   -1.2717    0.6237   12.9494 H   0  0  0  0  0  0  0  0  0  0  0  0
   -3.6976    0.6914   12.3612 H   0  0  0  0  0  0  0  0  0  0  0  0
   -4.3908    0.4657    9.9734 H   0  0  0  0  0  0  0  0  0  0  0  0
   -2.6971    0.1748    8.2017 H   0  0  0  0  0  0  0  0  0  0  0  0
  1  2  1  0  0  0  0
  2  3  2  0  0  0  0
  2  7  1  0  0  0  0
  3  4  2  0  0  0  0
  4  6  1  0  0  0  0
  4  5  2  0  0  0  0
  6  8  2  0  0  0  0
  7  6  1  0  0  0  0
  8  9  1  0  0  0  0
  9 10  2  0  0  0  0
  9 13  1  0  0  0  0
 10 11  1  0  0  0  0
 11 12  1  0  0  0  0
 11 20  1  0  0  0  0
 13 14  1  0  0  0  0
 13 12  2  0  0  0  0
 14 19  2  0  0  0  0
 15 16  2  0  0  0  0
 15 14  1  0  0  0  0
 16 17  1  0  0  0  0
 17 31  1  0  0  0  0
 17 18  2  0  0  0  0
 18 32  1  0  0  0  0
 19 18  1  0  0  0  0
 19 33  1  0  0  0  0
 20 21  1  0  0  0  0
 21 34  1  0  0  0  0
 21 22  2  0  0  0  0
 22 35  1  0  0  0  0
 23 22  1  0  0  0  0
 23 36  1  0  0  0  0
 24 23  2  0  0  0  0
 25 20  2  0  0  0  0
 25 24  1  0  0  0  0
 26  1  1  0  0  0  0
 27  8  1  0  0  0  0
 28 10  1  0  0  0  0
 29 15  1  0  0  0  0
 30 16  1  0  0  0  0
 37 24  1  0  0  0  0
 38 25  1  0  0  0  0
M  END
