000-770-314.xyz
 OpenBabel07262113353D
Cc1ccc(cc1)n1c(C)cc(c1C)/C=C\1/C(=O)N=C(N(C1=O)c1ccccc1)S
 51 54  0  0  0  0  0  0  0  0999 V2000
   -4.2545    0.0333    8.9970 C   0  0  0  0  0  0  0  0  0  0  0  0
   -2.9060    0.0278    8.3613 C   0  0  0  0  0  0  0  0  0  0  0  0
   -2.5298    0.0198    7.0462 C   0  0  0  0  0  0  0  0  0  0  0  0
   -1.0851    0.0177    6.9909 C   0  0  0  0  0  0  0  0  0  0  0  0
   -0.1562    0.0110    5.9129 C   0  0  0  0  0  0  0  0  0  0  0  0
   -0.2226    0.0054    4.5354 C   0  0  0  0  0  0  0  0  0  0  0  0
    1.1043    0.0011    3.8356 C   0  0  0  0  0  0  0  0  0  0  0  0
    2.1603   -0.0007    4.4471 O   0  0  0  0  0  0  0  0  0  0  0  0
    1.1067    0.0000    2.4414 N   0  0  0  0  0  0  0  0  0  0  0  0
   -0.0000    0.0000    1.7751 C   0  0  0  0  0  0  0  0  0  0  0  0
    0.0000    0.0000    0.0000 S   0  0  0  0  0  0  0  0  0  0  0  0
   -1.2626    0.0003    2.3370 N   0  0  0  0  0  0  0  0  0  0  0  0
   -1.4552    0.0038    3.7490 C   0  0  0  0  0  0  0  0  0  0  0  0
   -2.5989    0.0050    4.1672 O   0  0  0  0  0  0  0  0  0  0  0  0
   -2.4398   -0.0014    1.5096 C   0  0  0  0  0  0  0  0  0  0  0  0
   -3.0035   -1.2162    1.1113 C   0  0  0  0  0  0  0  0  0  0  0  0
   -4.1398   -1.2155    0.3017 C   0  0  0  0  0  0  0  0  0  0  0  0
   -4.7115   -0.0050   -0.1014 C   0  0  0  0  0  0  0  0  0  0  0  0
   -4.1480    1.2073    0.3079 C   0  0  0  0  0  0  0  0  0  0  0  0
   -3.0116    1.2116    1.1174 C   0  0  0  0  0  0  0  0  0  0  0  0
   -0.6323    0.0247    8.3337 C   0  0  0  0  0  0  0  0  0  0  0  0
    0.7426    0.0265    8.9098 C   0  0  0  0  0  0  0  0  0  0  0  0
   -1.7346    0.0308    9.1379 N   0  0  0  0  0  0  0  0  0  0  0  0
   -1.7091    0.0393   10.5652 C   0  0  0  0  0  0  0  0  0  0  0  0
   -1.6986    1.2524   11.2589 C   0  0  0  0  0  0  0  0  0  0  0  0
   -1.6802    1.2551   12.6543 C   0  0  0  0  0  0  0  0  0  0  0  0
   -1.6711    0.0557   13.3826 C   0  0  0  0  0  0  0  0  0  0  0  0
   -1.6185    0.0618   14.8888 C   0  0  0  0  0  0  0  0  0  0  0  0
   -1.6870   -1.1526   12.6680 C   0  0  0  0  0  0  0  0  0  0  0  0
   -1.7052   -1.1662   11.2733 C   0  0  0  0  0  0  0  0  0  0  0  0
   -4.4112   -0.8487    9.6404 H   0  0  0  0  0  0  0  0  0  0  0  0
   -5.0272    0.0304    8.2166 H   0  0  0  0  0  0  0  0  0  0  0  0
   -4.4084    0.9227    9.6309 H   0  0  0  0  0  0  0  0  0  0  0  0
   -3.1813    0.0157    6.1809 H   0  0  0  0  0  0  0  0  0  0  0  0
    0.8919    0.0107    6.2300 H   0  0  0  0  0  0  0  0  0  0  0  0
    2.3099    0.0023   -0.2446 Au  0  0  0  0  0  0  0  0  0  0  0  0
   -2.5421   -2.1504    1.4356 H   0  0  0  0  0  0  0  0  0  0  0  0
   -4.5807   -2.1632   -0.0152 H   0  0  0  0  0  0  0  0  0  0  0  0
   -5.6008   -0.0063   -0.7360 H   0  0  0  0  0  0  0  0  0  0  0  0
   -4.5953    2.1537   -0.0041 H   0  0  0  0  0  0  0  0  0  0  0  0
   -2.5565    2.1472    1.4464 H   0  0  0  0  0  0  0  0  0  0  0  0
    0.9119    0.9163    9.5382 H   0  0  0  0  0  0  0  0  0  0  0  0
    0.9079   -0.8533    9.5531 H   0  0  0  0  0  0  0  0  0  0  0  0
    1.5026    0.0182    8.1195 H   0  0  0  0  0  0  0  0  0  0  0  0
   -1.7086    2.1885   10.6972 H   0  0  0  0  0  0  0  0  0  0  0  0
   -1.6750    2.2086   13.1885 H   0  0  0  0  0  0  0  0  0  0  0  0
   -2.0387    0.9897   15.3041 H   0  0  0  0  0  0  0  0  0  0  0  0
   -2.1720   -0.7885   15.3150 H   0  0  0  0  0  0  0  0  0  0  0  0
   -0.5766   -0.0158   15.2450 H   0  0  0  0  0  0  0  0  0  0  0  0
   -1.6871   -2.1000   13.2134 H   0  0  0  0  0  0  0  0  0  0  0  0
   -1.7202   -2.1086   10.7223 H   0  0  0  0  0  0  0  0  0  0  0  0
  1 33  1  0  0  0  0
  1 31  1  0  0  0  0
  2  1  1  0  0  0  0
  2 23  1  0  0  0  0
  3  2  2  0  0  0  0
  4  3  1  0  0  0  0
  4 21  2  0  0  0  0
  5 35  1  0  0  0  0
  5  4  1  0  0  0  0
  6  5  2  0  0  0  0
  7  8  2  0  0  0  0
  7  6  1  0  0  0  0
  9  7  2  0  0  0  0
 10 12  1  0  0  0  0
 10  9  2  0  0  0  0
 11 10  1  0  0  0  0
 12 13  1  0  0  0  0
 13 14  2  0  0  0  0
 13  6  1  0  0  0  0
 15 12  1  0  0  0  0
 16 37  1  0  0  0  0
 16 15  2  0  0  0  0
 17 16  1  0  0  0  0
 18 17  2  0  0  0  0
 18 19  1  0  0  0  0
 19 20  2  0  0  0  0
 20 41  1  0  0  0  0
 20 15  1  0  0  0  0
 21 22  1  0  0  0  0
 21 23  1  0  0  0  0
 22 42  1  0  0  0  0
 22 43  1  0  0  0  0
 23 24  1  0  0  0  0
 24 25  2  0  0  0  0
 24 30  1  0  0  0  0
 25 26  1  0  0  0  0
 26 46  1  0  0  0  0
 26 27  2  0  0  0  0
 27 28  1  0  0  0  0
 28 49  1  0  0  0  0
 28 47  1  0  0  0  0
 28 48  1  0  0  0  0
 29 50  1  0  0  0  0
 29 27  1  0  0  0  0
 30 29  2  0  0  0  0
 32  1  1  0  0  0  0
 34  3  1  0  0  0  0
 36 11  1  0  0  0  0
 38 17  1  0  0  0  0
 39 18  1  0  0  0  0
 40 19  1  0  0  0  0
 44 22  1  0  0  0  0
 45 25  1  0  0  0  0
 51 30  1  0  0  0  0
M  END
