000-754-997.xyz
 OpenBabel07262113353D
Oc1nc(S)n(c(=O)c1C1NCCc2c1cccc2)c1ccc(cc1)C(C)C
 51 54  0  0  1  0  0  0  0  0999 V2000
   -7.4583    0.0009    0.7807 C   0  0  0  0  0  0  0  0  0  0  0  0
   -6.2529   -0.4082   -0.0778 C   0  0  0  0  0  0  0  0  0  0  0  0
   -6.1743    0.4227   -1.3689 C   0  0  0  0  0  0  0  0  0  0  0  0
   -4.9467   -0.3332    0.6918 C   0  0  0  0  0  0  0  0  0  0  0  0
   -4.1249   -1.4589    0.8267 C   0  0  0  0  0  0  0  0  0  0  0  0
   -2.8894   -1.3823    1.4749 C   0  0  0  0  0  0  0  0  0  0  0  0
   -2.4560   -0.1656    1.9954 C   0  0  0  0  0  0  0  0  0  0  0  0
   -3.2850    0.9618    1.9279 C   0  0  0  0  0  0  0  0  0  0  0  0
   -4.5151    0.8763    1.2705 C   0  0  0  0  0  0  0  0  0  0  0  0
   -1.1417   -0.0544    2.5511 N   0  0  0  0  0  0  0  0  0  0  0  0
   -0.0000   -0.0000    1.7815 C   0  0  0  0  0  0  0  0  0  0  0  0
    0.0000    0.0000    0.0000 S   0  0  0  0  0  0  0  0  0  0  0  0
    1.1869   -0.0000    2.3022 N   0  0  0  0  0  0  0  0  0  0  0  0
    1.3432   -0.0768    3.6482 C   0  0  0  0  0  0  0  0  0  0  0  0
    2.6286   -0.1288    4.0068 O   0  0  0  0  0  0  0  0  0  0  0  0
    0.2723   -0.0796    4.5322 C   0  0  1  0  0  0  0  0  0  0  0  0
    0.3022   -0.0473    6.0642 C   0  0  2  0  0  0  0  0  0  0  0  0
   -0.0252    1.2658    6.6138 N   0  0  0  0  0  0  0  0  0  0  0  0
    1.0517    2.2230    6.4418 C   0  0  0  0  0  0  0  0  0  0  0  0
    2.1994    1.8163    7.3647 C   0  0  0  0  0  0  0  0  0  0  0  0
    2.5193    0.3411    7.2556 C   0  0  0  0  0  0  0  0  0  0  0  0
    3.7260   -0.1680    7.7642 C   0  0  0  0  0  0  0  0  0  0  0  0
    4.0247   -1.5275    7.6947 C   0  0  0  0  0  0  0  0  0  0  0  0
    3.1109   -2.4116    7.1094 C   0  0  0  0  0  0  0  0  0  0  0  0
    1.9123   -1.9203    6.5972 C   0  0  0  0  0  0  0  0  0  0  0  0
    1.6032   -0.5517    6.6634 C   0  0  0  0  0  0  0  0  0  0  0  0
   -1.0573    0.0063    3.9832 C   0  0  0  0  0  0  0  0  0  0  0  0
   -2.0899    0.1095    4.6345 O   0  0  0  0  0  0  0  0  0  0  0  0
   -8.3965   -0.1301    0.2186 H   0  0  0  0  0  0  0  0  0  0  0  0
   -7.3978    1.0595    1.0810 H   0  0  0  0  0  0  0  0  0  0  0  0
   -7.5190   -0.6049    1.6975 H   0  0  0  0  0  0  0  0  0  0  0  0
   -6.3920   -1.4629   -0.3692 H   0  0  0  0  0  0  0  0  0  0  0  0
   -5.3242    0.1052   -1.9934 H   0  0  0  0  0  0  0  0  0  0  0  0
   -6.0472    1.4942   -1.1426 H   0  0  0  0  0  0  0  0  0  0  0  0
   -7.0956    0.3148   -1.9633 H   0  0  0  0  0  0  0  0  0  0  0  0
   -4.4476   -2.4115    0.3995 H   0  0  0  0  0  0  0  0  0  0  0  0
   -2.2384   -2.2551    1.5409 H   0  0  0  0  0  0  0  0  0  0  0  0
   -2.9562    1.8965    2.3837 H   0  0  0  0  0  0  0  0  0  0  0  0
   -5.1485    1.7644    1.2156 H   0  0  0  0  0  0  0  0  0  0  0  0
   -1.9157    1.1456   -0.6416 Au  0  0  0  0  0  0  0  0  0  0  0  0
    2.6974   -0.2344    4.9715 H   0  0  0  0  0  0  0  0  0  0  0  0
   -0.5027   -0.7265    6.3855 H   0  0  0  0  0  0  0  0  0  0  0  0
   -0.9037    1.5801    6.2086 H   0  0  0  0  0  0  0  0  0  0  0  0
    0.6911    3.2277    6.7091 H   0  0  0  0  0  0  0  0  0  0  0  0
    1.4212    2.2823    5.3932 H   0  0  0  0  0  0  0  0  0  0  0  0
    1.9045    2.0268    8.4075 H   0  0  0  0  0  0  0  0  0  0  0  0
    3.1027    2.4136    7.1585 H   0  0  0  0  0  0  0  0  0  0  0  0
    4.4403    0.5230    8.2205 H   0  0  0  0  0  0  0  0  0  0  0  0
    4.9714   -1.8998    8.0932 H   0  0  0  0  0  0  0  0  0  0  0  0
    3.3360   -3.4787    7.0501 H   0  0  0  0  0  0  0  0  0  0  0  0
    1.1970   -2.5994    6.1257 H   0  0  0  0  0  0  0  0  0  0  0  0
  1 30  1  0  0  0  0
  1 31  1  0  0  0  0
  2  4  1  0  0  0  0
  2  1  1  0  0  0  0
  3 34  1  0  0  0  0
  3  2  1  0  0  0  0
  4  5  2  0  0  0  0
  4  9  1  0  0  0  0
  5  6  1  0  0  0  0
  6 37  1  0  0  0  0
  6  7  2  0  0  0  0
  7 10  1  0  0  0  0
  8  7  1  0  0  0  0
  8 38  1  0  0  0  0
  9  8  2  0  0  0  0
 10 27  1  0  0  0  0
 11 13  2  0  0  0  0
 11 10  1  0  0  0  0
 12 11  1  0  0  0  0
 13 14  2  0  0  0  0
 14 15  1  0  0  0  0
 15 41  1  0  0  0  0
 16 14  1  6  0  0  0
 16 17  1  0  0  0  0
 17 42  1  1  0  0  0
 17 18  1  0  0  0  0
 17 26  1  0  0  0  0
 19 18  1  0  0  0  0
 19 44  1  0  0  0  0
 19 20  1  0  0  0  0
 20 46  1  0  0  0  0
 21 20  1  0  0  0  0
 21 22  2  0  0  0  0
 22 48  1  0  0  0  0
 23 22  1  0  0  0  0
 23 49  1  0  0  0  0
 24 23  2  0  0  0  0
 25 26  2  0  0  0  0
 25 24  1  0  0  0  0
 26 21  1  0  0  0  0
 27 16  1  0  0  0  0
 27 28  2  0  0  0  0
 29  1  1  0  0  0  0
 32  2  1  0  0  0  0
 33  3  1  0  0  0  0
 35  3  1  0  0  0  0
 36  5  1  0  0  0  0
 39  9  1  0  0  0  0
 40 12  1  0  0  0  0
 43 18  1  0  0  0  0
 45 19  1  0  0  0  0
 47 20  1  0  0  0  0
 50 24  1  0  0  0  0
 51 25  1  0  0  0  0
M  RAD  1  16   2
M  END
