000-742-040.xyz
 OpenBabel07262113343D
O=C1N=C(S/C/1=C\c1ccc(o1)c1cc(Cl)cc(c1)Cl)S
 28 30  0  0  0  0  0  0  0  0999 V2000
    0.0000    0.0000    0.0000 S   0  0  0  0  0  0  0  0  0  0  0  0
    0.0000   -0.0000    1.7367 C   0  0  0  0  0  0  0  0  0  0  0  0
   -1.0255   -0.0001    2.5130 N   0  0  0  0  0  0  0  0  0  0  0  0
   -0.6816   -0.0000    3.8788 C   0  0  0  0  0  0  0  0  0  0  0  0
   -1.4776   -0.0001    4.7882 O   0  0  0  0  0  0  0  0  0  0  0  0
    0.8155   -0.0001    4.0708 C   0  0  0  0  0  0  0  0  0  0  0  0
    1.6261   -0.0000    2.5117 S   0  0  0  0  0  0  0  0  0  0  0  0
    1.3744   -0.0003    5.3054 C   0  0  0  0  0  0  0  0  0  0  0  0
    2.7601   -0.0007    5.6475 C   0  0  0  0  0  0  0  0  0  0  0  0
    3.9467   -0.0010    4.9301 C   0  0  0  0  0  0  0  0  0  0  0  0
    4.9983   -0.0015    5.8804 C   0  0  0  0  0  0  0  0  0  0  0  0
    4.4053   -0.0016    7.1296 C   0  0  0  0  0  0  0  0  0  0  0  0
    3.0573   -0.0010    6.9842 O   0  0  0  0  0  0  0  0  0  0  0  0
    4.9404   -0.0021    8.4828 C   0  0  0  0  0  0  0  0  0  0  0  0
    4.0716   -0.0016    9.5891 C   0  0  0  0  0  0  0  0  0  0  0  0
    4.6027   -0.0022   10.8777 C   0  0  0  0  0  0  0  0  0  0  0  0
    3.5208   -0.0016   12.2464 Cl  0  0  0  0  0  0  0  0  0  0  0  0
    5.9814   -0.0033   11.1041 C   0  0  0  0  0  0  0  0  0  0  0  0
    6.8300   -0.0038    9.9932 C   0  0  0  0  0  0  0  0  0  0  0  0
    8.5572   -0.0052   10.2454 Cl  0  0  0  0  0  0  0  0  0  0  0  0
    6.3318   -0.0032    8.6929 C   0  0  0  0  0  0  0  0  0  0  0  0
   -2.2990   -0.0014   -0.3095 Au  0  0  0  0  0  0  0  0  0  0  0  0
    0.6625   -0.0003    6.1369 H   0  0  0  0  0  0  0  0  0  0  0  0
    4.0459   -0.0008    3.8480 H   0  0  0  0  0  0  0  0  0  0  0  0
    6.0650   -0.0018    5.6725 H   0  0  0  0  0  0  0  0  0  0  0  0
    2.9932   -0.0007    9.4403 H   0  0  0  0  0  0  0  0  0  0  0  0
    6.3836   -0.0037   12.1161 H   0  0  0  0  0  0  0  0  0  0  0  0
    7.0270   -0.0037    7.8543 H   0  0  0  0  0  0  0  0  0  0  0  0
  1  2  1  0  0  0  0
  2  7  1  0  0  0  0
  2  3  2  0  0  0  0
  3  4  2  0  0  0  0
  4  6  1  0  0  0  0
  4  5  2  0  0  0  0
  6  8  2  0  0  0  0
  7  6  1  0  0  0  0
  8  9  1  0  0  0  0
  8 23  1  0  0  0  0
  9 13  1  0  0  0  0
 10  9  2  0  0  0  0
 10 11  1  0  0  0  0
 11 12  2  0  0  0  0
 12 14  1  0  0  0  0
 13 12  1  0  0  0  0
 14 21  2  0  0  0  0
 14 15  1  0  0  0  0
 15 16  2  0  0  0  0
 16 18  1  0  0  0  0
 16 17  1  0  0  0  0
 18 27  1  0  0  0  0
 19 20  1  0  0  0  0
 19 18  2  0  0  0  0
 21 19  1  0  0  0  0
 22  1  1  0  0  0  0
 24 10  1  0  0  0  0
 25 11  1  0  0  0  0
 26 15  1  0  0  0  0
 28 21  1  0  0  0  0
M  END
