000-800-156.xyz
 OpenBabel07262113363D
SC1=NC(=O)/C(=C\c2ccc(o2)c2cccc(c2)C(=O)O)/C(=N1)O
 34 36  0  0  0  0  0  0  0  0999 V2000
    6.2544   -0.1919    4.2457 O   0  0  0  0  0  0  0  0  0  0  0  0
    7.1052    0.3975    5.1000 C   0  0  0  0  0  0  0  0  0  0  0  0
    8.3070    0.2965    5.0103 O   0  0  0  0  0  0  0  0  0  0  0  0
    6.4049    1.1838    6.1600 C   0  0  0  0  0  0  0  0  0  0  0  0
    7.1929    1.8479    7.1119 C   0  0  0  0  0  0  0  0  0  0  0  0
    6.5843    2.5955    8.1206 C   0  0  0  0  0  0  0  0  0  0  0  0
    5.1947    2.6845    8.1820 C   0  0  0  0  0  0  0  0  0  0  0  0
    4.3962    2.0211    7.2312 C   0  0  0  0  0  0  0  0  0  0  0  0
    5.0101    1.2636    6.2148 C   0  0  0  0  0  0  0  0  0  0  0  0
    2.9462    2.1083    7.2856 C   0  0  0  0  0  0  0  0  0  0  0  0
    2.0447    2.6828    8.1758 C   0  0  0  0  0  0  0  0  0  0  0  0
    0.7590    2.4014    7.6687 C   0  0  0  0  0  0  0  0  0  0  0  0
    0.9369    1.6664    6.4955 C   0  0  0  0  0  0  0  0  0  0  0  0
   -0.0446    1.1626    5.6031 C   0  0  0  0  0  0  0  0  0  0  0  0
    0.0291    0.4868    4.4083 C   0  0  0  0  0  0  0  0  0  0  0  0
   -1.2045    0.1903    3.6756 C   0  0  0  0  0  0  0  0  0  0  0  0
   -2.3856    0.1517    4.3121 O   0  0  0  0  0  0  0  0  0  0  0  0
   -1.2261   -0.0329    2.4020 N   0  0  0  0  0  0  0  0  0  0  0  0
    0.0000   -0.0000    1.7632 C   0  0  0  0  0  0  0  0  0  0  0  0
    0.0000    0.0000    0.0000 S   0  0  0  0  0  0  0  0  0  0  0  0
    1.1772   -0.0000    2.3066 N   0  0  0  0  0  0  0  0  0  0  0  0
    1.2886    0.0734    3.6871 C   0  0  0  0  0  0  0  0  0  0  0  0
    2.3273   -0.1710    4.2692 O   0  0  0  0  0  0  0  0  0  0  0  0
    2.2699    1.5099    6.2890 O   0  0  0  0  0  0  0  0  0  0  0  0
    6.7874   -0.6743    3.5922 H   0  0  0  0  0  0  0  0  0  0  0  0
    8.2784    1.7626    7.0399 H   0  0  0  0  0  0  0  0  0  0  0  0
    7.1953    3.1144    8.8621 H   0  0  0  0  0  0  0  0  0  0  0  0
    4.7246    3.2770    8.9696 H   0  0  0  0  0  0  0  0  0  0  0  0
    4.3971    0.7397    5.4789 H   0  0  0  0  0  0  0  0  0  0  0  0
    2.2902    3.2285    9.0828 H   0  0  0  0  0  0  0  0  0  0  0  0
   -0.1981    2.6947    8.0954 H   0  0  0  0  0  0  0  0  0  0  0  0
   -1.0456    1.4477    5.9469 H   0  0  0  0  0  0  0  0  0  0  0  0
   -2.2404    0.0967    5.2663 H   0  0  0  0  0  0  0  0  0  0  0  0
   -2.2553   -0.0531   -0.4727 Au  0  0  0  0  0  0  0  0  0  0  0  0
  1  2  1  0  0  0  0
  2  4  1  0  0  0  0
  3  2  2  0  0  0  0
  4  9  2  0  0  0  0
  4  5  1  0  0  0  0
  5  6  2  0  0  0  0
  6  7  1  0  0  0  0
  6 27  1  0  0  0  0
  7 28  1  0  0  0  0
  8 10  1  0  0  0  0
  8  7  2  0  0  0  0
  9  8  1  0  0  0  0
 10 11  2  0  0  0  0
 11 30  1  0  0  0  0
 12 31  1  0  0  0  0
 12 11  1  0  0  0  0
 13 12  2  0  0  0  0
 14 32  1  0  0  0  0
 14 13  1  0  0  0  0
 15 14  2  0  0  0  0
 16 17  1  0  0  0  0
 16 15  1  0  0  0  0
 17 33  1  0  0  0  0
 18 16  2  0  0  0  0
 19 21  2  0  0  0  0
 19 18  2  0  0  0  0
 20 19  1  0  0  0  0
 21 22  2  0  0  0  0
 22 23  2  0  0  0  0
 22 15  1  0  0  0  0
 24 13  1  0  0  0  0
 24 10  1  0  0  0  0
 25  1  1  0  0  0  0
 26  5  1  0  0  0  0
 29  9  1  0  0  0  0
 34 20  1  0  0  0  0
M  END
