001-589-568.xyz
 OpenBabel07262113393D
Clc1ccc(c(c1)Cl)Cn1cccc1/C=C/1\SC(=NC1=O)S
 32 34  0  0  0  0  0  0  0  0999 V2000
    0.0000    0.0000    0.0000 S   0  0  0  0  0  0  0  0  0  0  0  0
    0.0000    0.0000    1.7400 C   0  0  0  0  0  0  0  0  0  0  0  0
   -1.0318    0.0001    2.5105 N   0  0  0  0  0  0  0  0  0  0  0  0
   -0.6921   -0.0004    3.8778 C   0  0  0  0  0  0  0  0  0  0  0  0
   -1.4977   -0.0018    4.7829 O   0  0  0  0  0  0  0  0  0  0  0  0
    0.7980    0.0010    4.0771 C   0  0  0  0  0  0  0  0  0  0  0  0
    1.6167    0.0000    2.5184 S   0  0  0  0  0  0  0  0  0  0  0  0
    1.3400    0.0073    5.3208 C   0  0  0  0  0  0  0  0  0  0  0  0
    2.7143    0.0135    5.7125 C   0  0  0  0  0  0  0  0  0  0  0  0
    3.8869    0.0047    4.9426 C   0  0  0  0  0  0  0  0  0  0  0  0
    4.9880    0.0345    5.8232 C   0  0  0  0  0  0  0  0  0  0  0  0
    4.4778    0.0614    7.1143 C   0  0  0  0  0  0  0  0  0  0  0  0
    3.1135    0.0474    7.0497 N   0  0  0  0  0  0  0  0  0  0  0  0
    2.2494    0.0379    8.2258 C   0  0  0  0  0  0  0  0  0  0  0  0
    2.6540    1.0742    9.2451 C   0  0  0  0  0  0  0  0  0  0  0  0
    3.2142    0.6955   10.4709 C   0  0  0  0  0  0  0  0  0  0  0  0
    3.6111    1.6348   11.4234 C   0  0  0  0  0  0  0  0  0  0  0  0
    3.4455    2.9919   11.1408 C   0  0  0  0  0  0  0  0  0  0  0  0
    3.9364    4.1865   12.3115 Cl  0  0  0  0  0  0  0  0  0  0  0  0
    2.8880    3.4113    9.9303 C   0  0  0  0  0  0  0  0  0  0  0  0
    2.4991    2.4495    8.9976 C   0  0  0  0  0  0  0  0  0  0  0  0
    1.7944    2.9869    7.4941 Cl  0  0  0  0  0  0  0  0  0  0  0  0
   -2.2996    0.0015   -0.3013 Au  0  0  0  0  0  0  0  0  0  0  0  0
    0.5721    0.0119    6.0999 H   0  0  0  0  0  0  0  0  0  0  0  0
    3.9288   -0.0155    3.8567 H   0  0  0  0  0  0  0  0  0  0  0  0
    6.0419    0.0414    5.5544 H   0  0  0  0  0  0  0  0  0  0  0  0
    4.9875    0.1009    8.0737 H   0  0  0  0  0  0  0  0  0  0  0  0
    2.2657   -0.9609    8.6903 H   0  0  0  0  0  0  0  0  0  0  0  0
    1.2219    0.2294    7.8960 H   0  0  0  0  0  0  0  0  0  0  0  0
    3.3429   -0.3687   10.6847 H   0  0  0  0  0  0  0  0  0  0  0  0
    4.0454    1.3240   12.3738 H   0  0  0  0  0  0  0  0  0  0  0  0
    2.7554    4.4711    9.7160 H   0  0  0  0  0  0  0  0  0  0  0  0
  1  2  1  0  0  0  0
  2  3  2  0  0  0  0
  2  7  1  0  0  0  0
  3  4  2  0  0  0  0
  4  6  1  0  0  0  0
  4  5  2  0  0  0  0
  6  8  2  0  0  0  0
  7  6  1  0  0  0  0
  8  9  1  0  0  0  0
  8 24  1  0  0  0  0
  9 13  1  0  0  0  0
 10  9  2  0  0  0  0
 10 11  1  0  0  0  0
 11 12  2  0  0  0  0
 12 27  1  0  0  0  0
 13 12  1  0  0  0  0
 13 14  1  0  0  0  0
 14 28  1  0  0  0  0
 14 15  1  0  0  0  0
 15 16  1  0  0  0  0
 16 30  1  0  0  0  0
 16 17  2  0  0  0  0
 17 31  1  0  0  0  0
 18 17  1  0  0  0  0
 18 19  1  0  0  0  0
 20 18  2  0  0  0  0
 21 15  2  0  0  0  0
 21 20  1  0  0  0  0
 22 21  1  0  0  0  0
 23  1  1  0  0  0  0
 25 10  1  0  0  0  0
 26 11  1  0  0  0  0
 29 14  1  0  0  0  0
 32 20  1  0  0  0  0
M  END
