001-579-517.xyz
 OpenBabel07262113393D
Clc1cccc(c1)/C=C/1\SC(=NC1=O)S
 21 22  0  0  0  0  0  0  0  0999 V2000
    0.0000    0.0000    0.0000 S   0  0  0  0  0  0  0  0  0  0  0  0
    0.0000    0.0000    1.7440 C   0  0  0  0  0  0  0  0  0  0  0  0
   -1.1020    0.0000    2.3968 N   0  0  0  0  0  0  0  0  0  0  0  0
   -0.9088    0.0001    3.7912 C   0  0  0  0  0  0  0  0  0  0  0  0
   -1.7943    0.0002    4.6098 O   0  0  0  0  0  0  0  0  0  0  0  0
    0.5698    0.0002    4.1565 C   0  0  0  0  0  0  0  0  0  0  0  0
    1.5341    0.0000    2.6847 S   0  0  0  0  0  0  0  0  0  0  0  0
    0.9543    0.0003    5.4516 C   0  0  0  0  0  0  0  0  0  0  0  0
    2.2780    0.0003    6.0595 C   0  0  0  0  0  0  0  0  0  0  0  0
    2.3606   -0.0006    7.4682 C   0  0  0  0  0  0  0  0  0  0  0  0
    3.5952   -0.0008    8.1132 C   0  0  0  0  0  0  0  0  0  0  0  0
    4.7813   -0.0000    7.3754 C   0  0  0  0  0  0  0  0  0  0  0  0
    4.7043    0.0010    5.9790 C   0  0  0  0  0  0  0  0  0  0  0  0
    6.1769    0.0021    5.0373 Cl  0  0  0  0  0  0  0  0  0  0  0  0
    3.4779    0.0011    5.3197 C   0  0  0  0  0  0  0  0  0  0  0  0
    2.2524   -0.0002   -0.5082 Au  0  0  0  0  0  0  0  0  0  0  0  0
    0.1078    0.0002    6.1471 H   0  0  0  0  0  0  0  0  0  0  0  0
    1.4384   -0.0012    8.0531 H   0  0  0  0  0  0  0  0  0  0  0  0
    3.6404   -0.0016    9.2045 H   0  0  0  0  0  0  0  0  0  0  0  0
    5.7552   -0.0002    7.8663 H   0  0  0  0  0  0  0  0  0  0  0  0
    3.4746    0.0020    4.2313 H   0  0  0  0  0  0  0  0  0  0  0  0
  1  2  1  0  0  0  0
  2  3  2  0  0  0  0
  2  7  1  0  0  0  0
  3  4  2  0  0  0  0
  4  6  1  0  0  0  0
  4  5  2  0  0  0  0
  6  8  2  0  0  0  0
  7  6  1  0  0  0  0
  8  9  1  0  0  0  0
  8 17  1  0  0  0  0
  9 10  2  0  0  0  0
 10 18  1  0  0  0  0
 10 11  1  0  0  0  0
 11 19  1  0  0  0  0
 12 20  1  0  0  0  0
 12 11  2  0  0  0  0
 13 12  1  0  0  0  0
 14 13  1  0  0  0  0
 15 13  2  0  0  0  0
 15  9  1  0  0  0  0
 16  1  1  0  0  0  0
 21 15  1  0  0  0  0
M  END
