001-581-699.xyz
 OpenBabel07262113393D
SC1=NC(=O)/C(=C/c2cc3OCOc3cc2Br)/S1
 24 26  0  0  0  0  0  0  0  0999 V2000
    0.0000    0.0000    0.0000 S   0  0  0  0  0  0  0  0  0  0  0  0
    0.0000   -0.0000    1.7452 C   0  0  0  0  0  0  0  0  0  0  0  0
   -1.1087    0.0117    2.3912 N   0  0  0  0  0  0  0  0  0  0  0  0
   -0.9177    0.0060    3.7843 C   0  0  0  0  0  0  0  0  0  0  0  0
   -1.8018    0.0043    4.6045 O   0  0  0  0  0  0  0  0  0  0  0  0
    0.5624   -0.0161    4.1498 C   0  0  0  0  0  0  0  0  0  0  0  0
    1.5311    0.0000    2.6816 S   0  0  0  0  0  0  0  0  0  0  0  0
    0.9544   -0.1303    5.4331 C   0  0  0  0  0  0  0  0  0  0  0  0
    2.3027   -0.2770    5.9963 C   0  0  0  0  0  0  0  0  0  0  0  0
    2.4778   -1.3525    6.9143 C   0  0  0  0  0  0  0  0  0  0  0  0
    3.7269   -1.5720    7.4472 C   0  0  0  0  0  0  0  0  0  0  0  0
    4.1383   -2.5512    8.3031 O   0  0  0  0  0  0  0  0  0  0  0  0
    5.4992   -2.2681    8.6192 C   0  0  0  0  0  0  0  0  0  0  0  0
    5.9245   -1.1947    7.7773 O   0  0  0  0  0  0  0  0  0  0  0  0
    4.8143   -0.7512    7.1273 C   0  0  0  0  0  0  0  0  0  0  0  0
    4.6828    0.3262    6.2754 C   0  0  0  0  0  0  0  0  0  0  0  0
    3.4062    0.5534    5.7195 C   0  0  0  0  0  0  0  0  0  0  0  0
    3.2239    2.1360    4.6716 Br  0  0  0  0  0  0  0  0  0  0  0  0
    2.2545    0.0412   -0.4984 Au  0  0  0  0  0  0  0  0  0  0  0  0
    0.1180   -0.2260    6.1364 H   0  0  0  0  0  0  0  0  0  0  0  0
    1.6379   -2.0021    7.1628 H   0  0  0  0  0  0  0  0  0  0  0  0
    5.5811   -1.9610    9.6785 H   0  0  0  0  0  0  0  0  0  0  0  0
    6.1198   -3.1582    8.4256 H   0  0  0  0  0  0  0  0  0  0  0  0
    5.5208    0.9855    6.0542 H   0  0  0  0  0  0  0  0  0  0  0  0
  1  2  1  0  0  0  0
  2  3  2  0  0  0  0
  2  7  1  0  0  0  0
  3  4  2  0  0  0  0
  4  6  1  0  0  0  0
  4  5  2  0  0  0  0
  6  8  2  0  0  0  0
  7  6  1  0  0  0  0
  8  9  1  0  0  0  0
  8 20  1  0  0  0  0
  9 10  1  0  0  0  0
 10 21  1  0  0  0  0
 10 11  2  0  0  0  0
 11 12  1  0  0  0  0
 12 13  1  0  0  0  0
 13 22  1  0  0  0  0
 14 13  1  0  0  0  0
 15 11  1  0  0  0  0
 15 14  1  0  0  0  0
 16 15  2  0  0  0  0
 17  9  2  0  0  0  0
 17 16  1  0  0  0  0
 18 17  1  0  0  0  0
 19  1  1  0  0  0  0
 23 13  1  0  0  0  0
 24 16  1  0  0  0  0
M  END
