001-576-347.xyz
 OpenBabel07262113393D
Cc1n(C)ncc1Cn1c(S)nc2c(c1=O)c(C)c(s2)C
 37 39  0  0  1  0  0  0  0  0999 V2000
   -2.1253   -0.0804    7.5871 C   0  0  0  0  0  0  0  0  0  0  0  0
   -1.4481   -0.0635    6.2522 C   0  0  0  0  0  0  0  0  0  0  0  0
   -2.4597   -0.0213    4.8056 S   0  0  0  0  0  0  0  0  0  0  0  0
   -1.0569   -0.0197    3.7756 C   0  0  0  0  0  0  0  0  0  0  0  0
   -1.1354   -0.0028    2.4273 N   0  0  0  0  0  0  0  0  0  0  0  0
    0.0000   -0.0000    1.7767 C   0  0  0  0  0  0  0  0  0  0  0  0
    0.0000    0.0000    0.0000 S   0  0  0  0  0  0  0  0  0  0  0  0
    1.2274   -0.0000    2.3921 N   0  0  0  0  0  0  0  0  0  0  0  0
    2.4920   -0.0108    1.6241 C   0  0  0  0  0  0  0  0  0  0  0  0
    2.9236   -1.3876    1.2268 C   0  0  0  0  0  0  0  0  0  0  0  0
    3.2657   -2.4552    2.1003 C   0  0  0  0  0  0  0  0  0  0  0  0
    3.5852   -3.5520    1.4266 N   0  0  0  0  0  0  0  0  0  0  0  0
    3.4644   -3.2168    0.1271 N   0  0  0  0  0  0  0  0  0  0  0  0
    3.7558   -4.1904   -0.9000 C   0  0  0  0  0  0  0  0  0  0  0  0
    3.0682   -1.9215   -0.0524 C   0  0  0  0  0  0  0  0  0  0  0  0
    2.8899   -1.3319   -1.4113 C   0  0  0  0  0  0  0  0  0  0  0  0
    1.3749   -0.0628    3.8178 C   0  0  0  0  0  0  0  0  0  0  0  0
    2.4932   -0.1205    4.3084 O   0  0  0  0  0  0  0  0  0  0  0  0
    0.1167   -0.0496    4.5253 C   0  0  2  0  0  0  0  0  0  0  0  0
   -0.1062   -0.0774    5.9516 C   0  0  0  0  0  0  0  0  0  0  0  0
    1.0171   -0.1158    6.9467 C   0  0  0  0  0  0  0  0  0  0  0  0
   -2.7782   -0.9621    7.7013 H   0  0  0  0  0  0  0  0  0  0  0  0
   -2.7544    0.8133    7.7363 H   0  0  0  0  0  0  0  0  0  0  0  0
   -1.3850   -0.1064    8.3977 H   0  0  0  0  0  0  0  0  0  0  0  0
   -2.2895    0.1335   -0.3134 Au  0  0  0  0  0  0  0  0  0  0  0  0
    2.3625    0.6401    0.7492 H   0  0  0  0  0  0  0  0  0  0  0  0
    3.2338    0.4437    2.2916 H   0  0  0  0  0  0  0  0  0  0  0  0
    3.2866   -2.4383    3.1890 H   0  0  0  0  0  0  0  0  0  0  0  0
    3.9995   -5.1317   -0.3941 H   0  0  0  0  0  0  0  0  0  0  0  0
    4.6143   -3.8781   -1.5169 H   0  0  0  0  0  0  0  0  0  0  0  0
    2.8867   -4.3454   -1.5588 H   0  0  0  0  0  0  0  0  0  0  0  0
    2.0533   -1.8043   -1.9527 H   0  0  0  0  0  0  0  0  0  0  0  0
    3.7969   -1.4521   -2.0269 H   0  0  0  0  0  0  0  0  0  0  0  0
    2.6690   -0.2593   -1.3430 H   0  0  0  0  0  0  0  0  0  0  0  0
    0.6489   -0.1268    7.9812 H   0  0  0  0  0  0  0  0  0  0  0  0
    1.6479   -1.0034    6.7875 H   0  0  0  0  0  0  0  0  0  0  0  0
    1.6817    0.7521    6.8187 H   0  0  0  0  0  0  0  0  0  0  0  0
  1 22  1  0  0  0  0
  1 23  1  0  0  0  0
  1 24  1  0  0  0  0
  2  1  1  0  0  0  0
  3  2  1  0  0  0  0
  4  3  1  0  0  0  0
  5  4  2  0  0  0  0
  6  8  1  0  0  0  0
  6  5  2  0  0  0  0
  7  6  1  0  0  0  0
  8 17  1  0  0  0  0
  9 27  1  0  0  0  0
  9  8  1  0  0  0  0
 10  9  1  0  0  0  0
 10 11  1  0  0  0  0
 11 28  1  0  0  0  0
 12 11  2  0  0  0  0
 13 12  1  0  0  0  0
 14 29  1  0  0  0  0
 14 13  1  0  0  0  0
 15 13  1  0  0  0  0
 15 10  2  0  0  0  0
 16 34  1  0  0  0  0
 16 15  1  0  0  0  0
 17 18  2  0  0  0  0
 17 19  1  0  0  0  0
 19  4  1  6  0  0  0
 19 20  1  0  0  0  0
 20  2  2  0  0  0  0
 20 21  1  0  0  0  0
 21 35  1  0  0  0  0
 25  7  1  0  0  0  0
 26  9  1  0  0  0  0
 30 14  1  0  0  0  0
 31 14  1  0  0  0  0
 32 16  1  0  0  0  0
 33 16  1  0  0  0  0
 36 21  1  0  0  0  0
 37 21  1  0  0  0  0
M  RAD  1  19   2
M  END
