001-579-311.xyz
 OpenBabel07262113393D
O=C1N=C(S/C/1=C\c1ccccc1)S
 21 22  0  0  0  0  0  0  0  0999 V2000
    0.0000    0.0000    0.0000 S   0  0  0  0  0  0  0  0  0  0  0  0
    0.0000    0.0000    1.7454 C   0  0  0  0  0  0  0  0  0  0  0  0
   -1.1050   -0.0003    2.3930 N   0  0  0  0  0  0  0  0  0  0  0  0
   -0.9170   -0.0005    3.7893 C   0  0  0  0  0  0  0  0  0  0  0  0
   -1.8081   -0.0008    4.6025 O   0  0  0  0  0  0  0  0  0  0  0  0
    0.5580   -0.0003    4.1599 C   0  0  0  0  0  0  0  0  0  0  0  0
    1.5292   -0.0000    2.6907 S   0  0  0  0  0  0  0  0  0  0  0  0
    0.9380   -0.0003    5.4568 C   0  0  0  0  0  0  0  0  0  0  0  0
    2.2556   -0.0003    6.0760 C   0  0  0  0  0  0  0  0  0  0  0  0
    3.4704   -0.0015    5.3580 C   0  0  0  0  0  0  0  0  0  0  0  0
    4.6929   -0.0016    6.0258 C   0  0  0  0  0  0  0  0  0  0  0  0
    4.7361   -0.0006    7.4242 C   0  0  0  0  0  0  0  0  0  0  0  0
    3.5429    0.0007    8.1529 C   0  0  0  0  0  0  0  0  0  0  0  0
    2.3198    0.0007    7.4863 C   0  0  0  0  0  0  0  0  0  0  0  0
    2.2504    0.0047   -0.5122 Au  0  0  0  0  0  0  0  0  0  0  0  0
    0.0858   -0.0003    6.1456 H   0  0  0  0  0  0  0  0  0  0  0  0
    3.4657   -0.0025    4.2678 H   0  0  0  0  0  0  0  0  0  0  0  0
    5.6217   -0.0027    5.4507 H   0  0  0  0  0  0  0  0  0  0  0  0
    5.6973   -0.0007    7.9433 H   0  0  0  0  0  0  0  0  0  0  0  0
    3.5669    0.0015    9.2450 H   0  0  0  0  0  0  0  0  0  0  0  0
    1.3879    0.0016    8.0569 H   0  0  0  0  0  0  0  0  0  0  0  0
  1  2  1  0  0  0  0
  2  3  2  0  0  0  0
  2  7  1  0  0  0  0
  3  4  2  0  0  0  0
  4  6  1  0  0  0  0
  4  5  2  0  0  0  0
  6  8  2  0  0  0  0
  7  6  1  0  0  0  0
  8  9  1  0  0  0  0
  8 16  1  0  0  0  0
  9 14  2  0  0  0  0
 10 11  2  0  0  0  0
 10  9  1  0  0  0  0
 11 12  1  0  0  0  0
 12 19  1  0  0  0  0
 12 13  2  0  0  0  0
 13 20  1  0  0  0  0
 14 21  1  0  0  0  0
 14 13  1  0  0  0  0
 15  1  1  0  0  0  0
 17 10  1  0  0  0  0
 18 11  1  0  0  0  0
M  END
