001-579-290.xyz
 OpenBabel07262113393D
COc1cccc(c1)/C=C/1\SC(=NC1=O)S
 25 26  0  0  0  0  0  0  0  0999 V2000
    7.4677    0.0023    4.9610 C   0  0  0  0  0  0  0  0  0  0  0  0
    6.1279    0.0021    4.5238 O   0  0  0  0  0  0  0  0  0  0  0  0
    5.1335    0.0013    5.4448 C   0  0  0  0  0  0  0  0  0  0  0  0
    5.3406    0.0007    6.8333 C   0  0  0  0  0  0  0  0  0  0  0  0
    4.2335   -0.0003    7.6900 C   0  0  0  0  0  0  0  0  0  0  0  0
    2.9388   -0.0006    7.1858 C   0  0  0  0  0  0  0  0  0  0  0  0
    2.7165   -0.0000    5.7890 C   0  0  0  0  0  0  0  0  0  0  0  0
    1.3367   -0.0003    5.3233 C   0  0  0  0  0  0  0  0  0  0  0  0
    0.8106   -0.0002    4.0786 C   0  0  0  0  0  0  0  0  0  0  0  0
    1.6201    0.0000    2.5130 S   0  0  0  0  0  0  0  0  0  0  0  0
    0.0000   -0.0000    1.7374 C   0  0  0  0  0  0  0  0  0  0  0  0
    0.0000    0.0000    0.0000 S   0  0  0  0  0  0  0  0  0  0  0  0
   -1.0308   -0.0000    2.5087 N   0  0  0  0  0  0  0  0  0  0  0  0
   -0.6914   -0.0002    3.8738 C   0  0  0  0  0  0  0  0  0  0  0  0
   -1.4937   -0.0004    4.7776 O   0  0  0  0  0  0  0  0  0  0  0  0
    3.8292    0.0009    4.9331 C   0  0  0  0  0  0  0  0  0  0  0  0
    7.7036    0.9002    5.5600 H   0  0  0  0  0  0  0  0  0  0  0  0
    7.7039   -0.8959    5.5595 H   0  0  0  0  0  0  0  0  0  0  0  0
    8.0916    0.0027    4.0577 H   0  0  0  0  0  0  0  0  0  0  0  0
    6.3462    0.0010    7.2524 H   0  0  0  0  0  0  0  0  0  0  0  0
    4.3965   -0.0007    8.7702 H   0  0  0  0  0  0  0  0  0  0  0  0
    2.0825   -0.0014    7.8631 H   0  0  0  0  0  0  0  0  0  0  0  0
    0.5678   -0.0005    6.1040 H   0  0  0  0  0  0  0  0  0  0  0  0
   -2.2999    0.0011   -0.3048 Au  0  0  0  0  0  0  0  0  0  0  0  0
    3.7269    0.0014    3.8487 H   0  0  0  0  0  0  0  0  0  0  0  0
  1 18  1  0  0  0  0
  1 17  1  0  0  0  0
  2  1  1  0  0  0  0
  2  3  1  0  0  0  0
  3  4  1  0  0  0  0
  4 20  1  0  0  0  0
  4  5  2  0  0  0  0
  5 21  1  0  0  0  0
  6  5  1  0  0  0  0
  6 22  1  0  0  0  0
  7  6  2  0  0  0  0
  8  7  1  0  0  0  0
  8 23  1  0  0  0  0
  9  8  2  0  0  0  0
 10  9  1  0  0  0  0
 11 13  2  0  0  0  0
 11 10  1  0  0  0  0
 12 11  1  0  0  0  0
 13 14  2  0  0  0  0
 14  9  1  0  0  0  0
 14 15  2  0  0  0  0
 16  3  2  0  0  0  0
 16  7  1  0  0  0  0
 19  1  1  0  0  0  0
 24 12  1  0  0  0  0
 25 16  1  0  0  0  0
M  END
