001-590-364.xyz
 OpenBabel07262113393D
[O-][N+](=O)c1cc(/C=C/2\SC(=NC2=O)S)c(cc1)Cl
 23 24  0  0  0  0  0  0  0  0999 V2000
    5.9623    0.0436    3.2234 O   0  0  0  0  0  0  0  0  0  0  0  0
    6.2446    0.0301    4.4101 N   0  0  0  0  0  0  0  0  0  0  0  0
    7.3770    0.0293    4.8629 O   0  0  0  0  0  0  0  0  0  0  0  0
    5.1285    0.0135    5.3772 C   0  0  0  0  0  0  0  0  0  0  0  0
    5.4142   -0.0016    6.7420 C   0  0  0  0  0  0  0  0  0  0  0  0
    4.3480   -0.0165    7.6358 C   0  0  0  0  0  0  0  0  0  0  0  0
    3.0318   -0.0164    7.1640 C   0  0  0  0  0  0  0  0  0  0  0  0
    1.7587   -0.0358    8.3511 Cl  0  0  0  0  0  0  0  0  0  0  0  0
    2.7303   -0.0015    5.7748 C   0  0  0  0  0  0  0  0  0  0  0  0
    1.3490   -0.0015    5.3185 C   0  0  0  0  0  0  0  0  0  0  0  0
    0.8332   -0.0001    4.0695 C   0  0  0  0  0  0  0  0  0  0  0  0
    1.6305    0.0000    2.5033 S   0  0  0  0  0  0  0  0  0  0  0  0
   -0.0000   -0.0000    1.7329 C   0  0  0  0  0  0  0  0  0  0  0  0
    0.0000    0.0000    0.0000 S   0  0  0  0  0  0  0  0  0  0  0  0
   -1.0237    0.0001    2.5122 N   0  0  0  0  0  0  0  0  0  0  0  0
   -0.6770    0.0001    3.8727 C   0  0  0  0  0  0  0  0  0  0  0  0
   -1.4672    0.0000    4.7847 O   0  0  0  0  0  0  0  0  0  0  0  0
    3.8280    0.0137    4.8928 C   0  0  0  0  0  0  0  0  0  0  0  0
    6.4498   -0.0013    7.0786 H   0  0  0  0  0  0  0  0  0  0  0  0
    4.5257   -0.0286    8.7114 H   0  0  0  0  0  0  0  0  0  0  0  0
    0.5800   -0.0034    6.0951 H   0  0  0  0  0  0  0  0  0  0  0  0
   -2.2980    0.0035   -0.3185 Au  0  0  0  0  0  0  0  0  0  0  0  0
    3.6955    0.0273    3.8133 H   0  0  0  0  0  0  0  0  0  0  0  0
  1  2  2  0  0  0  0
  2  3  2  0  0  0  0
  2  4  1  0  0  0  0
  4  5  1  0  0  0  0
  5 19  1  0  0  0  0
  5  6  2  0  0  0  0
  6 20  1  0  0  0  0
  7  6  1  0  0  0  0
  7  8  1  0  0  0  0
  9  7  2  0  0  0  0
 10  9  1  0  0  0  0
 10 21  1  0  0  0  0
 11 10  2  0  0  0  0
 12 11  1  0  0  0  0
 13 12  1  0  0  0  0
 13 15  2  0  0  0  0
 14 13  1  0  0  0  0
 15 16  2  0  0  0  0
 16 11  1  0  0  0  0
 16 17  2  0  0  0  0
 18  4  2  0  0  0  0
 18  9  1  0  0  0  0
 22 14  1  0  0  0  0
 23 18  1  0  0  0  0
M  END
