001-579-463.xyz
 OpenBabel07262113393D
Cc1ccc(cc1/C=C/1\SC(=NC1=O)S)C
 27 28  0  0  0  0  0  0  0  0999 V2000
    6.2700   -0.4080    4.4524 C   0  0  0  0  0  0  0  0  0  0  0  0
    5.1197   -0.1587    5.3944 C   0  0  0  0  0  0  0  0  0  0  0  0
    5.3459    0.0944    6.7561 C   0  0  0  0  0  0  0  0  0  0  0  0
    4.2794    0.3112    7.6271 C   0  0  0  0  0  0  0  0  0  0  0  0
    2.9505    0.2903    7.1875 C   0  0  0  0  0  0  0  0  0  0  0  0
    1.8329    0.5330    8.1706 C   0  0  0  0  0  0  0  0  0  0  0  0
    2.7022    0.0465    5.8090 C   0  0  0  0  0  0  0  0  0  0  0  0
    1.3276    0.0308    5.3301 C   0  0  0  0  0  0  0  0  0  0  0  0
    0.8094   -0.0002    4.0808 C   0  0  0  0  0  0  0  0  0  0  0  0
    1.6192   -0.0000    2.5138 S   0  0  0  0  0  0  0  0  0  0  0  0
    0.0000    0.0000    1.7377 C   0  0  0  0  0  0  0  0  0  0  0  0
    0.0000    0.0000    0.0000 S   0  0  0  0  0  0  0  0  0  0  0  0
   -1.0309   -0.0021    2.5089 N   0  0  0  0  0  0  0  0  0  0  0  0
   -0.6913   -0.0035    3.8740 C   0  0  0  0  0  0  0  0  0  0  0  0
   -1.4953   -0.0036    4.7772 O   0  0  0  0  0  0  0  0  0  0  0  0
    3.7980   -0.1765    4.9487 C   0  0  0  0  0  0  0  0  0  0  0  0
    5.9211   -0.5615    3.4210 H   0  0  0  0  0  0  0  0  0  0  0  0
    6.8439   -1.3007    4.7514 H   0  0  0  0  0  0  0  0  0  0  0  0
    6.9733    0.4409    4.4490 H   0  0  0  0  0  0  0  0  0  0  0  0
    6.3699    0.1185    7.1394 H   0  0  0  0  0  0  0  0  0  0  0  0
    4.4822    0.5038    8.6838 H   0  0  0  0  0  0  0  0  0  0  0  0
    1.1438   -0.3253    8.2292 H   0  0  0  0  0  0  0  0  0  0  0  0
    1.2272    1.4115    7.8959 H   0  0  0  0  0  0  0  0  0  0  0  0
    2.2341    0.7058    9.1790 H   0  0  0  0  0  0  0  0  0  0  0  0
    0.5387    0.0555    6.0869 H   0  0  0  0  0  0  0  0  0  0  0  0
   -2.3001   -0.0071   -0.3043 Au  0  0  0  0  0  0  0  0  0  0  0  0
    3.6178   -0.3934    3.8952 H   0  0  0  0  0  0  0  0  0  0  0  0
  1 18  1  0  0  0  0
  1  2  1  0  0  0  0
  2  3  1  0  0  0  0
  3 20  1  0  0  0  0
  3  4  2  0  0  0  0
  4 21  1  0  0  0  0
  5  4  1  0  0  0  0
  5  6  1  0  0  0  0
  6 22  1  0  0  0  0
  6 24  1  0  0  0  0
  7  5  2  0  0  0  0
  8  7  1  0  0  0  0
  8 25  1  0  0  0  0
  9  8  2  0  0  0  0
 10  9  1  0  0  0  0
 11 13  2  0  0  0  0
 11 10  1  0  0  0  0
 12 11  1  0  0  0  0
 13 14  2  0  0  0  0
 14  9  1  0  0  0  0
 14 15  2  0  0  0  0
 16  2  2  0  0  0  0
 16  7  1  0  0  0  0
 17  1  1  0  0  0  0
 19  1  1  0  0  0  0
 23  6  1  0  0  0  0
 26 12  1  0  0  0  0
 27 16  1  0  0  0  0
M  END
