001-581-696.xyz
 OpenBabel07262113393D
SC1=NC(=O)/C(=C/c2cc3OCOc3cc2Cl)/S1
 24 26  0  0  0  0  0  0  0  0999 V2000
    0.0000    0.0000    0.0000 S   0  0  0  0  0  0  0  0  0  0  0  0
   -0.0000    0.0000    1.7370 C   0  0  0  0  0  0  0  0  0  0  0  0
   -1.0372    0.0146    2.5032 N   0  0  0  0  0  0  0  0  0  0  0  0
   -0.7006    0.0000    3.8661 C   0  0  0  0  0  0  0  0  0  0  0  0
   -1.5008   -0.0009    4.7715 O   0  0  0  0  0  0  0  0  0  0  0  0
    0.8049   -0.0406    4.0733 C   0  0  0  0  0  0  0  0  0  0  0  0
    1.6181   -0.0000    2.5118 S   0  0  0  0  0  0  0  0  0  0  0  0
    1.3120   -0.2024    5.3131 C   0  0  0  0  0  0  0  0  0  0  0  0
    2.6823   -0.3919    5.7917 C   0  0  0  0  0  0  0  0  0  0  0  0
    2.8578   -1.3888    6.7956 C   0  0  0  0  0  0  0  0  0  0  0  0
    4.1263   -1.6498    7.2578 C   0  0  0  0  0  0  0  0  0  0  0  0
    4.5328   -2.5510    8.1990 O   0  0  0  0  0  0  0  0  0  0  0  0
    5.9552   -2.4789    8.2417 C   0  0  0  0  0  0  0  0  0  0  0  0
    6.3578   -1.3789    7.4226 O   0  0  0  0  0  0  0  0  0  0  0  0
    5.2376   -0.9397    6.7889 C   0  0  0  0  0  0  0  0  0  0  0  0
    5.1115    0.0654    5.8521 C   0  0  0  0  0  0  0  0  0  0  0  0
    3.8153    0.3304    5.3653 C   0  0  0  0  0  0  0  0  0  0  0  0
    3.6622    1.6807    4.2686 Cl  0  0  0  0  0  0  0  0  0  0  0  0
   -2.2999    0.0479   -0.3042 Au  0  0  0  0  0  0  0  0  0  0  0  0
    0.5268   -0.3038    6.0728 H   0  0  0  0  0  0  0  0  0  0  0  0
    1.9981   -1.9471    7.1673 H   0  0  0  0  0  0  0  0  0  0  0  0
    6.3904   -3.4143    7.8428 H   0  0  0  0  0  0  0  0  0  0  0  0
    6.2895   -2.3084    9.2781 H   0  0  0  0  0  0  0  0  0  0  0  0
    5.9660    0.6479    5.5112 H   0  0  0  0  0  0  0  0  0  0  0  0
  1  2  1  0  0  0  0
  2  3  2  0  0  0  0
  2  7  1  0  0  0  0
  3  4  2  0  0  0  0
  4  6  1  0  0  0  0
  4  5  2  0  0  0  0
  6  8  2  0  0  0  0
  7  6  1  0  0  0  0
  8  9  1  0  0  0  0
  8 20  1  0  0  0  0
  9 10  1  0  0  0  0
 10 21  1  0  0  0  0
 10 11  2  0  0  0  0
 11 12  1  0  0  0  0
 12 13  1  0  0  0  0
 13 23  1  0  0  0  0
 14 13  1  0  0  0  0
 15 11  1  0  0  0  0
 15 14  1  0  0  0  0
 16 15  2  0  0  0  0
 17  9  2  0  0  0  0
 17 16  1  0  0  0  0
 18 17  1  0  0  0  0
 19  1  1  0  0  0  0
 22 13  1  0  0  0  0
 24 16  1  0  0  0  0
M  END
