001-579-584.xyz
 OpenBabel07262113393D
CC(Oc1ccccc1/C=C/1\SC(=NC1=O)S)C
 31 32  0  0  0  0  0  0  0  0999 V2000
    5.2824   -0.2100    3.0139 C   0  0  0  0  0  0  0  0  0  0  0  0
    4.6226   -1.3321    3.8090 C   0  0  0  0  0  0  0  0  0  0  0  0
    4.1925   -2.5050    2.9411 C   0  0  0  0  0  0  0  0  0  0  0  0
    3.4351   -0.8527    4.4576 O   0  0  0  0  0  0  0  0  0  0  0  0
    3.4775   -0.1481    5.6093 C   0  0  0  0  0  0  0  0  0  0  0  0
    4.6564    0.1166    6.3210 C   0  0  0  0  0  0  0  0  0  0  0  0
    4.6073    0.7774    7.5505 C   0  0  0  0  0  0  0  0  0  0  0  0
    3.3842    1.1758    8.0932 C   0  0  0  0  0  0  0  0  0  0  0  0
    2.2149    0.9211    7.3823 C   0  0  0  0  0  0  0  0  0  0  0  0
    2.2253    0.2906    6.1215 C   0  0  0  0  0  0  0  0  0  0  0  0
    0.9433    0.1324    5.4478 C   0  0  0  0  0  0  0  0  0  0  0  0
    0.5754    0.0094    4.1521 C   0  0  0  0  0  0  0  0  0  0  0  0
    1.5292    0.0000    2.6729 S   0  0  0  0  0  0  0  0  0  0  0  0
    0.0000   -0.0000    1.7493 C   0  0  0  0  0  0  0  0  0  0  0  0
    0.0000    0.0000    0.0000 S   0  0  0  0  0  0  0  0  0  0  0  0
   -1.1078   -0.0221    2.3970 N   0  0  0  0  0  0  0  0  0  0  0  0
   -0.9042   -0.0184    3.7911 C   0  0  0  0  0  0  0  0  0  0  0  0
   -1.7895   -0.0256    4.6122 O   0  0  0  0  0  0  0  0  0  0  0  0
    5.5408    0.6441    3.6566 H   0  0  0  0  0  0  0  0  0  0  0  0
    6.2056   -0.5719    2.5355 H   0  0  0  0  0  0  0  0  0  0  0  0
    4.5977    0.1503    2.2306 H   0  0  0  0  0  0  0  0  0  0  0  0
    5.3172   -1.7031    4.5824 H   0  0  0  0  0  0  0  0  0  0  0  0
    5.0694   -2.9537    2.4502 H   0  0  0  0  0  0  0  0  0  0  0  0
    3.6993   -3.2745    3.5524 H   0  0  0  0  0  0  0  0  0  0  0  0
    3.4814   -2.1757    2.1690 H   0  0  0  0  0  0  0  0  0  0  0  0
    5.6208   -0.2009    5.9283 H   0  0  0  0  0  0  0  0  0  0  0  0
    5.5382    0.9704    8.0888 H   0  0  0  0  0  0  0  0  0  0  0  0
    3.3425    1.6801    9.0604 H   0  0  0  0  0  0  0  0  0  0  0  0
    1.2506    1.2305    7.7926 H   0  0  0  0  0  0  0  0  0  0  0  0
    0.0702    0.1982    6.1084 H   0  0  0  0  0  0  0  0  0  0  0  0
    2.2607   -0.0175   -0.4828 Au  0  0  0  0  0  0  0  0  0  0  0  0
  1 19  1  0  0  0  0
  1  2  1  0  0  0  0
  2  4  1  0  0  0  0
  2 22  1  0  0  0  0
  3 24  1  0  0  0  0
  3  2  1  0  0  0  0
  4  5  1  0  0  0  0
  5 10  2  0  0  0  0
  5  6  1  0  0  0  0
  6  7  2  0  0  0  0
  7 27  1  0  0  0  0
  7  8  1  0  0  0  0
  8 28  1  0  0  0  0
  9 29  1  0  0  0  0
  9  8  2  0  0  0  0
 10  9  1  0  0  0  0
 11 30  1  0  0  0  0
 11 10  1  0  0  0  0
 12 11  2  0  0  0  0
 13 12  1  0  0  0  0
 14 16  2  0  0  0  0
 14 13  1  0  0  0  0
 15 14  1  0  0  0  0
 16 17  2  0  0  0  0
 17 12  1  0  0  0  0
 17 18  2  0  0  0  0
 20  1  1  0  0  0  0
 21  1  1  0  0  0  0
 23  3  1  0  0  0  0
 25  3  1  0  0  0  0
 26  6  1  0  0  0  0
 31 15  1  0  0  0  0
M  END
