001-594-271.xyz
 OpenBabel07262113393D
CCc1ccc(s1)/C=C/1\SC(=NC1=O)S
 24 25  0  0  0  0  0  0  0  0999 V2000
    5.8623   -1.3414    8.9813 C   0  0  0  0  0  0  0  0  0  0  0  0
    5.8566   -0.0257    8.1903 C   0  0  0  0  0  0  0  0  0  0  0  0
    4.8507    0.0059    7.0779 C   0  0  0  0  0  0  0  0  0  0  0  0
    5.0826    0.0066    5.7167 C   0  0  0  0  0  0  0  0  0  0  0  0
    3.8997    0.0055    4.9355 C   0  0  0  0  0  0  0  0  0  0  0  0
    2.7394    0.0011    5.6984 C   0  0  0  0  0  0  0  0  0  0  0  0
    1.3555    0.0008    5.3154 C   0  0  0  0  0  0  0  0  0  0  0  0
    0.8072    0.0004    4.0757 C   0  0  0  0  0  0  0  0  0  0  0  0
    1.6208   -0.0000    2.5155 S   0  0  0  0  0  0  0  0  0  0  0  0
    0.0000    0.0000    1.7384 C   0  0  0  0  0  0  0  0  0  0  0  0
    0.0000    0.0000    0.0000 S   0  0  0  0  0  0  0  0  0  0  0  0
   -1.0290    0.0001    2.5111 N   0  0  0  0  0  0  0  0  0  0  0  0
   -0.6882    0.0002    3.8782 C   0  0  0  0  0  0  0  0  0  0  0  0
   -1.4903    0.0002    4.7835 O   0  0  0  0  0  0  0  0  0  0  0  0
    3.1458   -0.0005    7.4047 S   0  0  0  0  0  0  0  0  0  0  0  0
    4.8847   -1.5240    9.4544 H   0  0  0  0  0  0  0  0  0  0  0  0
    6.0778   -2.1955    8.3208 H   0  0  0  0  0  0  0  0  0  0  0  0
    6.6246   -1.3169    9.7755 H   0  0  0  0  0  0  0  0  0  0  0  0
    5.6734    0.8161    8.8806 H   0  0  0  0  0  0  0  0  0  0  0  0
    6.8498    0.1496    7.7466 H   0  0  0  0  0  0  0  0  0  0  0  0
    6.0889    0.0101    5.2946 H   0  0  0  0  0  0  0  0  0  0  0  0
    3.9012    0.0090    3.8460 H   0  0  0  0  0  0  0  0  0  0  0  0
    0.6081    0.0005    6.1168 H   0  0  0  0  0  0  0  0  0  0  0  0
   -2.2998    0.0019   -0.3031 Au  0  0  0  0  0  0  0  0  0  0  0  0
  1 16  1  0  0  0  0
  1 18  1  0  0  0  0
  2 19  1  0  0  0  0
  2  1  1  0  0  0  0
  3 15  1  0  0  0  0
  3  2  1  0  0  0  0
  4  3  2  0  0  0  0
  5  6  2  0  0  0  0
  5  4  1  0  0  0  0
  6 15  1  0  0  0  0
  7  6  1  0  0  0  0
  7 23  1  0  0  0  0
  8  7  2  0  0  0  0
  9  8  1  0  0  0  0
 10 12  2  0  0  0  0
 10  9  1  0  0  0  0
 11 10  1  0  0  0  0
 12 13  2  0  0  0  0
 13  8  1  0  0  0  0
 13 14  2  0  0  0  0
 17  1  1  0  0  0  0
 20  2  1  0  0  0  0
 21  4  1  0  0  0  0
 22  5  1  0  0  0  0
 24 11  1  0  0  0  0
M  END
