001-579-345.xyz
 OpenBabel07262113393D
CCOc1cccc(c1O)/C=C/1\SC(=NC1=O)S
 29 30  0  0  0  0  0  0  0  0999 V2000
    5.9936   -1.5799    9.7776 C   0  0  0  0  0  0  0  0  0  0  0  0
    5.5102   -0.1379    9.7651 C   0  0  0  0  0  0  0  0  0  0  0  0
    4.2772    0.0205    9.0709 O   0  0  0  0  0  0  0  0  0  0  0  0
    4.2460   -0.0005    7.7039 C   0  0  0  0  0  0  0  0  0  0  0  0
    5.3421   -0.0019    6.8472 C   0  0  0  0  0  0  0  0  0  0  0  0
    5.1290   -0.0010    5.4584 C   0  0  0  0  0  0  0  0  0  0  0  0
    3.8429    0.0000    4.9403 C   0  0  0  0  0  0  0  0  0  0  0  0
    2.7092    0.0004    5.7882 C   0  0  0  0  0  0  0  0  0  0  0  0
    1.3320    0.0005    5.3302 C   0  0  0  0  0  0  0  0  0  0  0  0
    0.8062    0.0001    4.0838 C   0  0  0  0  0  0  0  0  0  0  0  0
    1.6173    0.0000    2.5160 S   0  0  0  0  0  0  0  0  0  0  0  0
   -0.0000   -0.0000    1.7394 C   0  0  0  0  0  0  0  0  0  0  0  0
    0.0000    0.0000    0.0000 S   0  0  0  0  0  0  0  0  0  0  0  0
   -1.0309    0.0000    2.5094 N   0  0  0  0  0  0  0  0  0  0  0  0
   -0.6929   -0.0001    3.8772 C   0  0  0  0  0  0  0  0  0  0  0  0
   -1.5001   -0.0005    4.7769 O   0  0  0  0  0  0  0  0  0  0  0  0
    2.9324   -0.0006    7.1824 C   0  0  0  0  0  0  0  0  0  0  0  0
    1.8951    0.0011    8.0432 O   0  0  0  0  0  0  0  0  0  0  0  0
    6.9166   -1.6625   10.3728 H   0  0  0  0  0  0  0  0  0  0  0  0
    5.2321   -2.2357   10.2262 H   0  0  0  0  0  0  0  0  0  0  0  0
    6.2065   -1.9474    8.7629 H   0  0  0  0  0  0  0  0  0  0  0  0
    6.2686    0.5413    9.3380 H   0  0  0  0  0  0  0  0  0  0  0  0
    5.3023    0.2094   10.7876 H   0  0  0  0  0  0  0  0  0  0  0  0
    6.3584   -0.0045    7.2405 H   0  0  0  0  0  0  0  0  0  0  0  0
    5.9881   -0.0034    4.7851 H   0  0  0  0  0  0  0  0  0  0  0  0
    3.7091   -0.0012    3.8593 H   0  0  0  0  0  0  0  0  0  0  0  0
    0.5689    0.0007    6.1140 H   0  0  0  0  0  0  0  0  0  0  0  0
   -2.3009    0.0026   -0.2979 Au  0  0  0  0  0  0  0  0  0  0  0  0
    2.2725   -0.0000    8.9388 H   0  0  0  0  0  0  0  0  0  0  0  0
  1 20  1  0  0  0  0
  1 19  1  0  0  0  0
  2  1  1  0  0  0  0
  2 23  1  0  0  0  0
  3  2  1  0  0  0  0
  4  3  1  0  0  0  0
  5 24  1  0  0  0  0
  5  4  2  0  0  0  0
  6  5  1  0  0  0  0
  7  6  2  0  0  0  0
  7  8  1  0  0  0  0
  8 17  2  0  0  0  0
  9  8  1  0  0  0  0
  9 27  1  0  0  0  0
 10  9  2  0  0  0  0
 11 10  1  0  0  0  0
 12 14  2  0  0  0  0
 12 11  1  0  0  0  0
 13 12  1  0  0  0  0
 14 15  2  0  0  0  0
 15 10  1  0  0  0  0
 15 16  2  0  0  0  0
 17  4  1  0  0  0  0
 17 18  1  0  0  0  0
 18 29  1  0  0  0  0
 21  1  1  0  0  0  0
 22  2  1  0  0  0  0
 25  6  1  0  0  0  0
 26  7  1  0  0  0  0
 28 13  1  0  0  0  0
M  END
