001-574-319.xyz
 OpenBabel07262113393D
CCn1c(S)nnc1c1cc(nc2c1cc(Br)cc2)C1CC1
 37 40  0  0  1  0  0  0  0  0999 V2000
    2.7824    1.6973    1.7239 C   0  0  0  0  0  0  0  0  0  0  0  0
    2.5002    0.2204    1.9802 C   0  0  0  0  0  0  0  0  0  0  0  0
    1.1523   -0.0000    2.5015 N   0  0  0  0  0  0  0  0  0  0  0  0
    0.0000   -0.0000    1.7552 C   0  0  0  0  0  0  0  0  0  0  0  0
    0.0000    0.0000    0.0000 S   0  0  0  0  0  0  0  0  0  0  0  0
   -1.0549    0.0137    2.5519 N   0  0  0  0  0  0  0  0  0  0  0  0
   -0.6059    0.0425    3.8380 N   0  0  0  0  0  0  0  0  0  0  0  0
    0.7095    0.0377    3.8175 C   0  0  0  0  0  0  0  0  0  0  0  0
    1.5919    0.0373    4.9939 C   0  0  0  0  0  0  0  0  0  0  0  0
    2.6247   -0.8752    5.0967 C   0  0  0  0  0  0  0  0  0  0  0  0
    3.5017   -0.8566    6.2199 C   0  0  0  0  0  0  0  0  0  0  0  0
    3.3631    0.0183    7.1969 N   0  0  0  0  0  0  0  0  0  0  0  0
    2.3481    0.9199    7.1427 C   0  0  0  0  0  0  0  0  0  0  0  0
    2.2167    1.8470    8.2128 C   0  0  0  0  0  0  0  0  0  0  0  0
    1.2123    2.7887    8.2178 C   0  0  0  0  0  0  0  0  0  0  0  0
    0.2940    2.8323    7.1400 C   0  0  0  0  0  0  0  0  0  0  0  0
   -1.0882    4.1435    7.1730 Br  0  0  0  0  0  0  0  0  0  0  0  0
    0.3779    1.9543    6.0805 C   0  0  0  0  0  0  0  0  0  0  0  0
    1.4115    0.9811    6.0594 C   0  0  1  0  0  0  0  0  0  0  0  0
    4.6204   -1.8292    6.3461 C   0  0  0  0  0  0  0  0  0  0  0  0
    5.3790   -2.3251    5.1303 C   0  0  0  0  0  0  0  0  0  0  0  0
    4.4763   -3.2620    5.8708 C   0  0  0  0  0  0  0  0  0  0  0  0
    3.8014    1.8250    1.3276 H   0  0  0  0  0  0  0  0  0  0  0  0
    2.6989    2.2756    2.6569 H   0  0  0  0  0  0  0  0  0  0  0  0
    2.0723    2.1090    0.9912 H   0  0  0  0  0  0  0  0  0  0  0  0
    2.5935   -0.3687    1.0552 H   0  0  0  0  0  0  0  0  0  0  0  0
    3.2150   -0.1905    2.7030 H   0  0  0  0  0  0  0  0  0  0  0  0
   -2.3137   -0.0532   -0.2045 Au  0  0  0  0  0  0  0  0  0  0  0  0
    2.7513   -1.6321    4.3216 H   0  0  0  0  0  0  0  0  0  0  0  0
    2.9413    1.7809    9.0258 H   0  0  0  0  0  0  0  0  0  0  0  0
    1.1138    3.4989    9.0400 H   0  0  0  0  0  0  0  0  0  0  0  0
   -0.3530    1.9767    5.2742 H   0  0  0  0  0  0  0  0  0  0  0  0
    5.1959   -1.6634    7.2592 H   0  0  0  0  0  0  0  0  0  0  0  0
    5.0600   -1.9598    4.1497 H   0  0  0  0  0  0  0  0  0  0  0  0
    6.4607   -2.4484    5.2289 H   0  0  0  0  0  0  0  0  0  0  0  0
    3.5269   -3.5483    5.4092 H   0  0  0  0  0  0  0  0  0  0  0  0
    4.9245   -4.0433    6.4902 H   0  0  0  0  0  0  0  0  0  0  0  0
  1  2  1  0  0  0  0
  1 24  1  0  0  0  0
  2  3  1  0  0  0  0
  2 27  1  0  0  0  0
  3  8  1  0  0  0  0
  4  3  1  0  0  0  0
  4  6  2  0  0  0  0
  5  4  1  0  0  0  0
  6  7  1  0  0  0  0
  8  7  2  0  0  0  0
  8  9  1  0  0  0  0
  9 10  2  0  0  0  0
 10 11  1  0  0  0  0
 11 20  1  0  0  0  0
 11 12  2  0  0  0  0
 13 12  2  0  0  0  0
 13 14  1  0  0  0  0
 14 15  2  0  0  0  0
 14 30  1  0  0  0  0
 15 31  1  0  0  0  0
 16 17  1  0  0  0  0
 16 15  1  0  0  0  0
 18 16  2  0  0  0  0
 19  9  1  6  0  0  0
 19 18  1  0  0  0  0
 19 13  1  0  0  0  0
 20 33  1  0  0  0  0
 21 35  1  0  0  0  0
 21 22  1  0  0  0  0
 21 20  1  0  0  0  0
 22 20  1  0  0  0  0
 22 37  1  0  0  0  0
 23  1  1  0  0  0  0
 25  1  1  0  0  0  0
 26  2  1  0  0  0  0
 28  5  1  0  0  0  0
 29 10  1  0  0  0  0
 32 18  1  0  0  0  0
 34 21  1  0  0  0  0
 36 22  1  0  0  0  0
M  RAD  1  19   2
M  END
