001-552-718.xyz
 OpenBabel07262113393D
CCn1c(S)nnc1c1ccoc1C
 25 26  0  0  0  0  0  0  0  0999 V2000
   -3.0382    1.3122    1.5523 C   0  0  0  0  0  0  0  0  0  0  0  0
   -2.5118   -0.0567    1.9731 C   0  0  0  0  0  0  0  0  0  0  0  0
   -1.1545   -0.0047    2.5016 N   0  0  0  0  0  0  0  0  0  0  0  0
    0.0000    0.0000    1.7579 C   0  0  0  0  0  0  0  0  0  0  0  0
    0.0000    0.0000    0.0000 S   0  0  0  0  0  0  0  0  0  0  0  0
    1.0507   -0.0000    2.5557 N   0  0  0  0  0  0  0  0  0  0  0  0
    0.5974    0.0053    3.8417 N   0  0  0  0  0  0  0  0  0  0  0  0
   -0.7207    0.0071    3.8205 C   0  0  0  0  0  0  0  0  0  0  0  0
   -1.5842   -0.0175    4.9940 C   0  0  0  0  0  0  0  0  0  0  0  0
   -2.9176    0.5192    5.1563 C   0  0  0  0  0  0  0  0  0  0  0  0
   -3.2739    0.2647    6.4457 C   0  0  0  0  0  0  0  0  0  0  0  0
   -2.2682   -0.3812    7.0908 O   0  0  0  0  0  0  0  0  0  0  0  0
   -1.2398   -0.5528    6.2195 C   0  0  0  0  0  0  0  0  0  0  0  0
   -0.0211   -1.2325    6.7231 C   0  0  0  0  0  0  0  0  0  0  0  0
   -4.0636    1.2221    1.1620 H   0  0  0  0  0  0  0  0  0  0  0  0
   -3.0483    2.0140    2.4002 H   0  0  0  0  0  0  0  0  0  0  0  0
   -2.4053    1.7432    0.7620 H   0  0  0  0  0  0  0  0  0  0  0  0
   -3.1486   -0.5152    2.7415 H   0  0  0  0  0  0  0  0  0  0  0  0
   -2.5003   -0.7429    1.1120 H   0  0  0  0  0  0  0  0  0  0  0  0
    2.3099   -0.1424   -0.1961 Au  0  0  0  0  0  0  0  0  0  0  0  0
   -3.5159    1.0504    4.4223 H   0  0  0  0  0  0  0  0  0  0  0  0
   -4.1645    0.4776    7.0300 H   0  0  0  0  0  0  0  0  0  0  0  0
    0.7112   -1.3109    5.9106 H   0  0  0  0  0  0  0  0  0  0  0  0
    0.4381   -0.6524    7.5410 H   0  0  0  0  0  0  0  0  0  0  0  0
   -0.2607   -2.2329    7.1197 H   0  0  0  0  0  0  0  0  0  0  0  0
  1  2  1  0  0  0  0
  1 16  1  0  0  0  0
  2  3  1  0  0  0  0
  2 18  1  0  0  0  0
  3  8  1  0  0  0  0
  4  3  1  0  0  0  0
  4  6  2  0  0  0  0
  5  4  1  0  0  0  0
  6  7  1  0  0  0  0
  8  7  2  0  0  0  0
  8  9  1  0  0  0  0
  9 10  1  0  0  0  0
  9 13  2  0  0  0  0
 10 11  2  0  0  0  0
 11 22  1  0  0  0  0
 11 12  1  0  0  0  0
 13 14  1  0  0  0  0
 13 12  1  0  0  0  0
 14 25  1  0  0  0  0
 14 24  1  0  0  0  0
 15  1  1  0  0  0  0
 17  1  1  0  0  0  0
 19  2  1  0  0  0  0
 20  5  1  0  0  0  0
 21 10  1  0  0  0  0
 23 14  1  0  0  0  0
M  END
