001-577-347.xyz
 OpenBabel07262113393D
Oc1c(/C=C/2\SC(=NC2=O)S)cccc1O
 23 24  0  0  0  0  0  0  0  0999 V2000
    4.5023   -0.8825    8.8534 O   0  0  0  0  0  0  0  0  0  0  0  0
    4.3143   -0.4492    7.5832 C   0  0  0  0  0  0  0  0  0  0  0  0
    5.3448    0.0017    6.7611 C   0  0  0  0  0  0  0  0  0  0  0  0
    5.0814    0.4311    5.4521 C   0  0  0  0  0  0  0  0  0  0  0  0
    3.7851    0.4093    4.9638 C   0  0  0  0  0  0  0  0  0  0  0  0
    2.7136   -0.0403    5.7725 C   0  0  0  0  0  0  0  0  0  0  0  0
    1.3333   -0.0351    5.3199 C   0  0  0  0  0  0  0  0  0  0  0  0
    0.8068    0.0021    4.0754 C   0  0  0  0  0  0  0  0  0  0  0  0
    1.6206   -0.0000    2.5125 S   0  0  0  0  0  0  0  0  0  0  0  0
    0.0000    0.0000    1.7367 C   0  0  0  0  0  0  0  0  0  0  0  0
    0.0000    0.0000    0.0000 S   0  0  0  0  0  0  0  0  0  0  0  0
   -1.0320    0.0024    2.5081 N   0  0  0  0  0  0  0  0  0  0  0  0
   -0.6932    0.0053    3.8714 C   0  0  0  0  0  0  0  0  0  0  0  0
   -1.4931    0.0007    4.7790 O   0  0  0  0  0  0  0  0  0  0  0  0
    2.9893   -0.4806    7.0897 C   0  0  0  0  0  0  0  0  0  0  0  0
    2.0496   -0.9552    7.9358 O   0  0  0  0  0  0  0  0  0  0  0  0
    5.4398   -0.8143    9.0754 H   0  0  0  0  0  0  0  0  0  0  0  0
    6.3673    0.0140    7.1508 H   0  0  0  0  0  0  0  0  0  0  0  0
    5.8996    0.7908    4.8255 H   0  0  0  0  0  0  0  0  0  0  0  0
    3.5810    0.7821    3.9601 H   0  0  0  0  0  0  0  0  0  0  0  0
    0.5411   -0.0504    6.0802 H   0  0  0  0  0  0  0  0  0  0  0  0
   -2.2994    0.0089   -0.3084 Au  0  0  0  0  0  0  0  0  0  0  0  0
    1.2118   -1.0733    7.4697 H   0  0  0  0  0  0  0  0  0  0  0  0
  1 17  1  0  0  0  0
  2  1  1  0  0  0  0
  3 18  1  0  0  0  0
  3  2  2  0  0  0  0
  4  3  1  0  0  0  0
  5  4  2  0  0  0  0
  5  6  1  0  0  0  0
  6 15  2  0  0  0  0
  7  6  1  0  0  0  0
  7 21  1  0  0  0  0
  8  7  2  0  0  0  0
  9  8  1  0  0  0  0
 10 12  2  0  0  0  0
 10  9  1  0  0  0  0
 11 10  1  0  0  0  0
 12 13  2  0  0  0  0
 13  8  1  0  0  0  0
 13 14  2  0  0  0  0
 15  2  1  0  0  0  0
 15 16  1  0  0  0  0
 19  4  1  0  0  0  0
 20  5  1  0  0  0  0
 22 11  1  0  0  0  0
 23 16  1  0  0  0  0
M  END
