001-579-478.xyz
 OpenBabel07262113393D
O=C1N=C(S/C/1=C\c1ccc(cc1)c1ccccc1)S
 31 33  0  0  0  0  0  0  0  0999 V2000
    0.0000    0.0000    0.0000 S   0  0  0  0  0  0  0  0  0  0  0  0
   -0.0000   -0.0000    1.7374 C   0  0  0  0  0  0  0  0  0  0  0  0
   -1.0293    0.0000    2.5101 N   0  0  0  0  0  0  0  0  0  0  0  0
   -0.6888    0.0003    3.8754 C   0  0  0  0  0  0  0  0  0  0  0  0
   -1.4909    0.0005    4.7796 O   0  0  0  0  0  0  0  0  0  0  0  0
    0.8122    0.0000    4.0790 C   0  0  0  0  0  0  0  0  0  0  0  0
    1.6207   -0.0000    2.5130 S   0  0  0  0  0  0  0  0  0  0  0  0
    1.3394   -0.0020    5.3247 C   0  0  0  0  0  0  0  0  0  0  0  0
    2.7153   -0.0035    5.7908 C   0  0  0  0  0  0  0  0  0  0  0  0
    3.8462    0.0034    4.9468 C   0  0  0  0  0  0  0  0  0  0  0  0
    5.1325   -0.0006    5.4726 C   0  0  0  0  0  0  0  0  0  0  0  0
    5.3583   -0.0103    6.8629 C   0  0  0  0  0  0  0  0  0  0  0  0
    4.2319   -0.0155    7.7070 C   0  0  0  0  0  0  0  0  0  0  0  0
    2.9449   -0.0125    7.1837 C   0  0  0  0  0  0  0  0  0  0  0  0
    6.7325   -0.0141    7.4161 C   0  0  0  0  0  0  0  0  0  0  0  0
    7.7738   -0.6983    6.7618 C   0  0  0  0  0  0  0  0  0  0  0  0
    9.0677   -0.7030    7.2835 C   0  0  0  0  0  0  0  0  0  0  0  0
    9.3507   -0.0216    8.4706 C   0  0  0  0  0  0  0  0  0  0  0  0
    8.3273    0.6635    9.1315 C   0  0  0  0  0  0  0  0  0  0  0  0
    7.0330    0.6663    8.6107 C   0  0  0  0  0  0  0  0  0  0  0  0
   -2.2997   -0.0033   -0.3059 Au  0  0  0  0  0  0  0  0  0  0  0  0
    0.5688   -0.0034    6.1041 H   0  0  0  0  0  0  0  0  0  0  0  0
    3.7272    0.0224    3.8633 H   0  0  0  0  0  0  0  0  0  0  0  0
    5.9844    0.0308    4.7909 H   0  0  0  0  0  0  0  0  0  0  0  0
    4.3698   -0.0487    8.7893 H   0  0  0  0  0  0  0  0  0  0  0  0
    2.0869   -0.0268    7.8602 H   0  0  0  0  0  0  0  0  0  0  0  0
    7.5602   -1.2557    5.8474 H   0  0  0  0  0  0  0  0  0  0  0  0
    9.8585   -1.2492    6.7636 H   0  0  0  0  0  0  0  0  0  0  0  0
   10.3641   -0.0245    8.8787 H   0  0  0  0  0  0  0  0  0  0  0  0
    8.5397    1.2069   10.0554 H   0  0  0  0  0  0  0  0  0  0  0  0
    6.2481    1.2265    9.1228 H   0  0  0  0  0  0  0  0  0  0  0  0
  1  2  1  0  0  0  0
  2  3  2  0  0  0  0
  2  7  1  0  0  0  0
  3  4  2  0  0  0  0
  4  6  1  0  0  0  0
  4  5  2  0  0  0  0
  6  8  2  0  0  0  0
  7  6  1  0  0  0  0
  8  9  1  0  0  0  0
  8 22  1  0  0  0  0
  9 14  2  0  0  0  0
 10 11  2  0  0  0  0
 10  9  1  0  0  0  0
 11 12  1  0  0  0  0
 12 15  1  0  0  0  0
 12 13  2  0  0  0  0
 13 25  1  0  0  0  0
 14 13  1  0  0  0  0
 14 26  1  0  0  0  0
 15 20  2  0  0  0  0
 16 17  2  0  0  0  0
 16 15  1  0  0  0  0
 17 18  1  0  0  0  0
 18 29  1  0  0  0  0
 18 19  2  0  0  0  0
 19 30  1  0  0  0  0
 20 31  1  0  0  0  0
 20 19  1  0  0  0  0
 21  1  1  0  0  0  0
 23 10  1  0  0  0  0
 24 11  1  0  0  0  0
 27 16  1  0  0  0  0
 28 17  1  0  0  0  0
M  END
