001-923-344.xyz
 OpenBabel07262113393D
Sc1nnc(n1/N=C/c1cccc(c1O)C)c1ccccc1
 36 38  0  0  0  0  0  0  0  0999 V2000
   -7.2131   -0.6024   -0.2929 C   0  0  0  0  0  0  0  0  0  0  0  0
   -6.5733   -1.0635    0.9931 C   0  0  0  0  0  0  0  0  0  0  0  0
   -7.2972   -1.7796    1.9513 C   0  0  0  0  0  0  0  0  0  0  0  0
   -6.6920   -2.2235    3.1282 C   0  0  0  0  0  0  0  0  0  0  0  0
   -5.3494   -1.9456    3.3478 C   0  0  0  0  0  0  0  0  0  0  0  0
   -4.5760   -1.2087    2.4255 C   0  0  0  0  0  0  0  0  0  0  0  0
   -3.1730   -1.0105    2.7972 C   0  0  0  0  0  0  0  0  0  0  0  0
   -2.3982   -0.1575    2.2330 N   0  0  0  0  0  0  0  0  0  0  0  0
   -1.0918   -0.0878    2.6346 N   0  0  0  0  0  0  0  0  0  0  0  0
    0.0000   -0.0000    1.7619 C   0  0  0  0  0  0  0  0  0  0  0  0
    0.0000    0.0000    0.0000 S   0  0  0  0  0  0  0  0  0  0  0  0
    1.1058   -0.0000    2.4752 N   0  0  0  0  0  0  0  0  0  0  0  0
    0.7718   -0.0575    3.7990 N   0  0  0  0  0  0  0  0  0  0  0  0
   -0.5339   -0.1186    3.9133 C   0  0  0  0  0  0  0  0  0  0  0  0
   -1.2640   -0.1136    5.1870 C   0  0  0  0  0  0  0  0  0  0  0  0
   -2.4727    0.5848    5.3635 C   0  0  0  0  0  0  0  0  0  0  0  0
   -3.1168    0.5774    6.6016 C   0  0  0  0  0  0  0  0  0  0  0  0
   -2.5609   -0.1137    7.6822 C   0  0  0  0  0  0  0  0  0  0  0  0
   -1.3471   -0.7894    7.5200 C   0  0  0  0  0  0  0  0  0  0  0  0
   -0.7021   -0.7915    6.2836 C   0  0  0  0  0  0  0  0  0  0  0  0
   -5.2169   -0.7780    1.2380 C   0  0  0  0  0  0  0  0  0  0  0  0
   -4.5354   -0.0688    0.2693 O   0  0  0  0  0  0  0  0  0  0  0  0
   -8.2700   -0.8972   -0.3331 H   0  0  0  0  0  0  0  0  0  0  0  0
   -6.7206   -1.0417   -1.1789 H   0  0  0  0  0  0  0  0  0  0  0  0
   -7.1867    0.4979   -0.3998 H   0  0  0  0  0  0  0  0  0  0  0  0
   -8.3511   -1.9963    1.7613 H   0  0  0  0  0  0  0  0  0  0  0  0
   -7.2661   -2.7865    3.8659 H   0  0  0  0  0  0  0  0  0  0  0  0
   -4.8634   -2.2889    4.2638 H   0  0  0  0  0  0  0  0  0  0  0  0
   -2.8092   -1.6534    3.6116 H   0  0  0  0  0  0  0  0  0  0  0  0
   -2.2868   -0.0524   -0.2979 Au  0  0  0  0  0  0  0  0  0  0  0  0
   -2.9003    1.1523    4.5357 H   0  0  0  0  0  0  0  0  0  0  0  0
   -4.0528    1.1275    6.7259 H   0  0  0  0  0  0  0  0  0  0  0  0
   -3.0670   -0.1174    8.6504 H   0  0  0  0  0  0  0  0  0  0  0  0
   -0.9000   -1.3210    8.3634 H   0  0  0  0  0  0  0  0  0  0  0  0
    0.2475   -1.3104    6.1446 H   0  0  0  0  0  0  0  0  0  0  0  0
   -5.1547    0.2041   -0.4225 H   0  0  0  0  0  0  0  0  0  0  0  0
  1  2  1  0  0  0  0
  2 21  2  0  0  0  0
  2  3  1  0  0  0  0
  3  4  2  0  0  0  0
  4  5  1  0  0  0  0
  4 27  1  0  0  0  0
  5 28  1  0  0  0  0
  6  7  1  0  0  0  0
  6  5  2  0  0  0  0
  7 29  1  0  0  0  0
  8  9  1  0  0  0  0
  8  7  2  0  0  0  0
  9 14  1  0  0  0  0
 10 12  2  0  0  0  0
 10  9  1  0  0  0  0
 11 10  1  0  0  0  0
 12 13  1  0  0  0  0
 13 14  2  0  0  0  0
 14 15  1  0  0  0  0
 15 16  2  0  0  0  0
 15 20  1  0  0  0  0
 16 17  1  0  0  0  0
 17 32  1  0  0  0  0
 17 18  2  0  0  0  0
 18 33  1  0  0  0  0
 19 18  1  0  0  0  0
 19 34  1  0  0  0  0
 20 19  2  0  0  0  0
 21  6  1  0  0  0  0
 22 21  1  0  0  0  0
 23  1  1  0  0  0  0
 24  1  1  0  0  0  0
 25  1  1  0  0  0  0
 26  3  1  0  0  0  0
 30 11  1  0  0  0  0
 31 16  1  0  0  0  0
 35 20  1  0  0  0  0
 36 22  1  0  0  0  0
M  END
