001-858-928.xyz
 OpenBabel07262113393D
Fc1ccc(cc1)c1nnc(n1/N=C/c1c(Cl)cccc1Cl)S
 32 34  0  0  0  0  0  0  0  0999 V2000
    3.2813   -0.2296    8.8081 F   0  0  0  0  0  0  0  0  0  0  0  0
    2.6694   -0.2021    7.6157 C   0  0  0  0  0  0  0  0  0  0  0  0
    1.2876   -0.0221    7.5645 C   0  0  0  0  0  0  0  0  0  0  0  0
    0.6584    0.0091    6.3247 C   0  0  0  0  0  0  0  0  0  0  0  0
    1.3971   -0.1379    5.1317 C   0  0  0  0  0  0  0  0  0  0  0  0
    2.7891   -0.3225    5.2160 C   0  0  0  0  0  0  0  0  0  0  0  0
    3.4250   -0.3542    6.4577 C   0  0  0  0  0  0  0  0  0  0  0  0
    0.6347   -0.1180    3.8765 C   0  0  0  0  0  0  0  0  0  0  0  0
   -0.6752   -0.1683    3.8186 N   0  0  0  0  0  0  0  0  0  0  0  0
   -1.0679   -0.1029    2.5152 N   0  0  0  0  0  0  0  0  0  0  0  0
    0.0000   -0.0000    1.7535 C   0  0  0  0  0  0  0  0  0  0  0  0
    0.0000    0.0000    0.0000 S   0  0  0  0  0  0  0  0  0  0  0  0
    1.1318   -0.0000    2.5725 N   0  0  0  0  0  0  0  0  0  0  0  0
    2.4559    0.0580    2.2880 N   0  0  0  0  0  0  0  0  0  0  0  0
    2.8479    0.5035    1.1545 C   0  0  0  0  0  0  0  0  0  0  0  0
    4.2657    0.5540    0.7756 C   0  0  0  0  0  0  0  0  0  0  0  0
    4.6836    1.5349   -0.1571 C   0  0  0  0  0  0  0  0  0  0  0  0
    3.5315    2.6909   -0.7874 Cl  0  0  0  0  0  0  0  0  0  0  0  0
    6.0028    1.6430   -0.5924 C   0  0  0  0  0  0  0  0  0  0  0  0
    6.9559    0.7509   -0.1038 C   0  0  0  0  0  0  0  0  0  0  0  0
    6.5896   -0.2380    0.8072 C   0  0  0  0  0  0  0  0  0  0  0  0
    5.2655   -0.3346    1.2411 C   0  0  0  0  0  0  0  0  0  0  0  0
    4.9046   -1.6387    2.3399 Cl  0  0  0  0  0  0  0  0  0  0  0  0
    0.7260    0.0933    8.4931 H   0  0  0  0  0  0  0  0  0  0  0  0
   -0.4211    0.1451    6.2546 H   0  0  0  0  0  0  0  0  0  0  0  0
    3.3752   -0.4490    4.3101 H   0  0  0  0  0  0  0  0  0  0  0  0
    4.5038   -0.4996    6.5356 H   0  0  0  0  0  0  0  0  0  0  0  0
   -2.2627   -0.5118   -0.2045 Au  0  0  0  0  0  0  0  0  0  0  0  0
    2.1479    0.9181    0.4168 H   0  0  0  0  0  0  0  0  0  0  0  0
    6.2691    2.4243   -1.3044 H   0  0  0  0  0  0  0  0  0  0  0  0
    7.9927    0.8244   -0.4385 H   0  0  0  0  0  0  0  0  0  0  0  0
    7.3218   -0.9494    1.1894 H   0  0  0  0  0  0  0  0  0  0  0  0
  2  1  1  0  0  0  0
  3  2  1  0  0  0  0
  3 24  1  0  0  0  0
  4  3  2  0  0  0  0
  5  6  2  0  0  0  0
  5  4  1  0  0  0  0
  6  7  1  0  0  0  0
  7 27  1  0  0  0  0
  7  2  2  0  0  0  0
  8  5  1  0  0  0  0
  9  8  2  0  0  0  0
 10  9  1  0  0  0  0
 11 10  2  0  0  0  0
 11 13  1  0  0  0  0
 12 11  1  0  0  0  0
 13  8  1  0  0  0  0
 14 13  1  0  0  0  0
 15 14  2  0  0  0  0
 16 15  1  0  0  0  0
 16 22  2  0  0  0  0
 17 16  1  0  0  0  0
 18 17  1  0  0  0  0
 19 17  2  0  0  0  0
 19 20  1  0  0  0  0
 20 21  2  0  0  0  0
 21 32  1  0  0  0  0
 21 22  1  0  0  0  0
 22 23  1  0  0  0  0
 25  4  1  0  0  0  0
 26  6  1  0  0  0  0
 28 12  1  0  0  0  0
 29 15  1  0  0  0  0
 30 19  1  0  0  0  0
 31 20  1  0  0  0  0
M  END
