001-810-744.xyz
 OpenBabel07262113393D
Brc1cccc(c1)/C=N/n1c(S)nnc1c1ccncc1
 31 33  0  0  0  0  0  0  0  0999 V2000
    0.0000    0.0000    0.0000 S   0  0  0  0  0  0  0  0  0  0  0  0
    0.0000   -0.0000    1.7521 C   0  0  0  0  0  0  0  0  0  0  0  0
   -1.0721   -0.0909    2.5166 N   0  0  0  0  0  0  0  0  0  0  0  0
   -0.6804   -0.1506    3.8164 N   0  0  0  0  0  0  0  0  0  0  0  0
    0.6308   -0.1055    3.8694 C   0  0  0  0  0  0  0  0  0  0  0  0
    1.4022   -0.1382    5.1158 C   0  0  0  0  0  0  0  0  0  0  0  0
    0.7292   -0.5213    6.2908 C   0  0  0  0  0  0  0  0  0  0  0  0
    1.4304   -0.5439    7.4940 C   0  0  0  0  0  0  0  0  0  0  0  0
    2.7237   -0.2212    7.6074 N   0  0  0  0  0  0  0  0  0  0  0  0
    3.3586    0.1474    6.4942 C   0  0  0  0  0  0  0  0  0  0  0  0
    2.7574    0.2100    5.2337 C   0  0  0  0  0  0  0  0  0  0  0  0
    1.1280   -0.0000    2.5680 N   0  0  0  0  0  0  0  0  0  0  0  0
    2.4550   -0.0522    2.2790 N   0  0  0  0  0  0  0  0  0  0  0  0
    2.8897    0.3909    1.1580 C   0  0  0  0  0  0  0  0  0  0  0  0
    4.3128    0.3109    0.8206 C   0  0  0  0  0  0  0  0  0  0  0  0
    4.7663    0.8886   -0.3763 C   0  0  0  0  0  0  0  0  0  0  0  0
    6.1206    0.8383   -0.7097 C   0  0  0  0  0  0  0  0  0  0  0  0
    7.0347    0.2135    0.1405 C   0  0  0  0  0  0  0  0  0  0  0  0
    6.5744   -0.3652    1.3309 C   0  0  0  0  0  0  0  0  0  0  0  0
    7.8164   -1.2228    2.4914 Br  0  0  0  0  0  0  0  0  0  0  0  0
    5.2283   -0.3279    1.6782 C   0  0  0  0  0  0  0  0  0  0  0  0
   -2.2664   -0.4961   -0.2053 Au  0  0  0  0  0  0  0  0  0  0  0  0
   -0.3259   -0.7919    6.2439 H   0  0  0  0  0  0  0  0  0  0  0  0
    0.9180   -0.8416    8.4161 H   0  0  0  0  0  0  0  0  0  0  0  0
    4.4167    0.4146    6.5991 H   0  0  0  0  0  0  0  0  0  0  0  0
    3.3351    0.5249    4.3683 H   0  0  0  0  0  0  0  0  0  0  0  0
    2.2314    0.8662    0.4153 H   0  0  0  0  0  0  0  0  0  0  0  0
    4.0536    1.3793   -1.0434 H   0  0  0  0  0  0  0  0  0  0  0  0
    6.4723    1.2891   -1.6402 H   0  0  0  0  0  0  0  0  0  0  0  0
    8.0946    0.1697   -0.1137 H   0  0  0  0  0  0  0  0  0  0  0  0
    4.8706   -0.7887    2.5988 H   0  0  0  0  0  0  0  0  0  0  0  0
  1  2  1  0  0  0  0
  2  3  2  0  0  0  0
  2 12  1  0  0  0  0
  3  4  1  0  0  0  0
  4  5  2  0  0  0  0
  5  6  1  0  0  0  0
  6 11  1  0  0  0  0
  6  7  2  0  0  0  0
  7  8  1  0  0  0  0
  8  9  2  0  0  0  0
  8 24  1  0  0  0  0
 10 25  1  0  0  0  0
 10  9  2  0  0  0  0
 11 10  1  0  0  0  0
 12  5  1  0  0  0  0
 13 12  1  0  0  0  0
 14 13  2  0  0  0  0
 15 14  1  0  0  0  0
 15 21  2  0  0  0  0
 16 15  1  0  0  0  0
 17 16  2  0  0  0  0
 17 18  1  0  0  0  0
 18 19  2  0  0  0  0
 19 21  1  0  0  0  0
 19 20  1  0  0  0  0
 21 31  1  0  0  0  0
 22  1  1  0  0  0  0
 23  7  1  0  0  0  0
 26 11  1  0  0  0  0
 27 14  1  0  0  0  0
 28 16  1  0  0  0  0
 29 17  1  0  0  0  0
 30 18  1  0  0  0  0
M  RAD  1  11   2
M  END
