001-579-261.xyz
 OpenBabel07262113393D
SC1=NC(=O)/C(=C/c2ccccc2C(=O)O)/S1
 24 25  0  0  0  0  0  0  0  0999 V2000
    2.2885    2.5284    4.5641 O   0  0  0  0  0  0  0  0  0  0  0  0
    3.4062    1.7976    4.4156 C   0  0  0  0  0  0  0  0  0  0  0  0
    4.2716    2.0849    3.6216 O   0  0  0  0  0  0  0  0  0  0  0  0
    3.5015    0.6585    5.3822 C   0  0  0  0  0  0  0  0  0  0  0  0
    4.7992    0.3622    5.8253 C   0  0  0  0  0  0  0  0  0  0  0  0
    5.0217   -0.5795    6.8274 C   0  0  0  0  0  0  0  0  0  0  0  0
    3.9324   -1.2355    7.4074 C   0  0  0  0  0  0  0  0  0  0  0  0
    2.6412   -0.9706    6.9560 C   0  0  0  0  0  0  0  0  0  0  0  0
    2.3964   -0.0523    5.9162 C   0  0  0  0  0  0  0  0  0  0  0  0
    1.0159    0.0205    5.4214 C   0  0  0  0  0  0  0  0  0  0  0  0
    0.5860    0.0264    4.1465 C   0  0  0  0  0  0  0  0  0  0  0  0
    1.5407   -0.0000    2.6673 S   0  0  0  0  0  0  0  0  0  0  0  0
    0.0000   -0.0000    1.7448 C   0  0  0  0  0  0  0  0  0  0  0  0
    0.0000    0.0000    0.0000 S   0  0  0  0  0  0  0  0  0  0  0  0
   -1.0997   -0.0007    2.4047 N   0  0  0  0  0  0  0  0  0  0  0  0
   -0.8951    0.0067    3.7975 C   0  0  0  0  0  0  0  0  0  0  0  0
   -1.7710   -0.0009    4.6261 O   0  0  0  0  0  0  0  0  0  0  0  0
    2.3188    3.2253    3.8865 H   0  0  0  0  0  0  0  0  0  0  0  0
    5.6292    0.9120    5.3786 H   0  0  0  0  0  0  0  0  0  0  0  0
    6.0386   -0.7886    7.1661 H   0  0  0  0  0  0  0  0  0  0  0  0
    4.0887   -1.9628    8.2073 H   0  0  0  0  0  0  0  0  0  0  0  0
    1.7942   -1.5084    7.3883 H   0  0  0  0  0  0  0  0  0  0  0  0
    0.2134   -0.0430    6.1651 H   0  0  0  0  0  0  0  0  0  0  0  0
    2.2559    0.1699   -0.4779 Au  0  0  0  0  0  0  0  0  0  0  0  0
  2  1  1  0  0  0  0
  2  4  1  0  0  0  0
  3  2  2  0  0  0  0
  4  5  2  0  0  0  0
  4  9  1  0  0  0  0
  5  6  1  0  0  0  0
  6 20  1  0  0  0  0
  6  7  2  0  0  0  0
  7 21  1  0  0  0  0
  8 22  1  0  0  0  0
  8  7  1  0  0  0  0
  9  8  2  0  0  0  0
 10  9  1  0  0  0  0
 10 23  1  0  0  0  0
 11 10  2  0  0  0  0
 12 11  1  0  0  0  0
 13 15  2  0  0  0  0
 13 12  1  0  0  0  0
 14 13  1  0  0  0  0
 15 16  2  0  0  0  0
 16 11  1  0  0  0  0
 16 17  2  0  0  0  0
 18  1  1  0  0  0  0
 19  5  1  0  0  0  0
 24 14  1  0  0  0  0
M  END
