001-574-849.xyz
 OpenBabel07262113393D
Cc1sc2c(c1)c(=O)n(c(n2)S)NC(=O)c1ccco1
 29 31  0  0  1  0  0  0  0  0999 V2000
    1.7369    0.0407    7.7185 C   0  0  0  0  0  0  0  0  0  0  0  0
    1.1801    0.0366    6.3303 C   0  0  0  0  0  0  0  0  0  0  0  0
   -0.1312    0.0478    5.9388 C   0  0  0  0  0  0  0  0  0  0  0  0
   -0.2902    0.0367    4.5173 C   0  0  1  0  0  0  0  0  0  0  0  0
    0.9236    0.0150    3.8289 C   0  0  0  0  0  0  0  0  0  0  0  0
    1.0875    0.0000    2.4848 N   0  0  0  0  0  0  0  0  0  0  0  0
    0.0000   -0.0000    1.7681 C   0  0  0  0  0  0  0  0  0  0  0  0
    0.0000    0.0000    0.0000 S   0  0  0  0  0  0  0  0  0  0  0  0
   -1.2576    0.0264    2.3393 N   0  0  0  0  0  0  0  0  0  0  0  0
   -2.3561   -0.0711    1.5144 N   0  0  0  0  0  0  0  0  0  0  0  0
   -2.9241   -1.3456    1.3784 C   0  0  0  0  0  0  0  0  0  0  0  0
   -2.3293   -2.3605    1.6629 O   0  0  0  0  0  0  0  0  0  0  0  0
   -4.2765   -1.3335    0.8057 C   0  0  0  0  0  0  0  0  0  0  0  0
   -5.1095   -2.3638    0.4535 C   0  0  0  0  0  0  0  0  0  0  0  0
   -6.3085   -1.7574   -0.0334 C   0  0  0  0  0  0  0  0  0  0  0  0
   -6.1158   -0.4046    0.0601 C   0  0  0  0  0  0  0  0  0  0  0  0
   -4.8896   -0.1360    0.5655 O   0  0  0  0  0  0  0  0  0  0  0  0
   -1.5161    0.0320    3.7543 C   0  0  0  0  0  0  0  0  0  0  0  0
   -2.6647    0.0468    4.1492 O   0  0  0  0  0  0  0  0  0  0  0  0
    2.2677    0.0114    4.9422 S   0  0  0  0  0  0  0  0  0  0  0  0
    2.3749    0.9213    7.9020 H   0  0  0  0  0  0  0  0  0  0  0  0
    0.9149    0.0585    8.4487 H   0  0  0  0  0  0  0  0  0  0  0  0
    2.3489   -0.8550    7.9168 H   0  0  0  0  0  0  0  0  0  0  0  0
   -0.9715    0.0611    6.6333 H   0  0  0  0  0  0  0  0  0  0  0  0
    2.2880   -0.0106   -0.3330 Au  0  0  0  0  0  0  0  0  0  0  0  0
   -2.9987    0.7153    1.5788 H   0  0  0  0  0  0  0  0  0  0  0  0
   -4.8734   -3.4209    0.5427 H   0  0  0  0  0  0  0  0  0  0  0  0
   -7.1999   -2.2586   -0.4036 H   0  0  0  0  0  0  0  0  0  0  0  0
   -6.7338    0.4557   -0.1828 H   0  0  0  0  0  0  0  0  0  0  0  0
  1 21  1  0  0  0  0
  1 23  1  0  0  0  0
  1 22  1  0  0  0  0
  2  1  1  0  0  0  0
  3  2  2  0  0  0  0
  3 24  1  0  0  0  0
  4 18  1  1  0  0  0
  4  3  1  0  0  0  0
  5  4  1  0  0  0  0
  5 20  1  0  0  0  0
  6  5  2  0  0  0  0
  7  9  1  0  0  0  0
  7  6  2  0  0  0  0
  8  7  1  0  0  0  0
  9 18  1  0  0  0  0
 10 26  1  0  0  0  0
 10  9  1  0  0  0  0
 11 10  1  0  0  0  0
 11 12  2  0  0  0  0
 13 11  1  0  0  0  0
 14 27  1  0  0  0  0
 14 13  2  0  0  0  0
 15 16  2  0  0  0  0
 15 14  1  0  0  0  0
 16 17  1  0  0  0  0
 17 13  1  0  0  0  0
 18 19  2  0  0  0  0
 20  2  1  0  0  0  0
 25  8  1  0  0  0  0
 28 15  1  0  0  0  0
 29 16  1  0  0  0  0
M  RAD  1   4   2
M  END
