001-579-271.xyz
 OpenBabel07262113393D
CN(c1ccc(cc1)/C=C/1\SC(=NC1=O)S)C
 29 30  0  0  0  0  0  0  0  0999 V2000
    6.8283    0.0090    8.8373 C   0  0  0  0  0  0  0  0  0  0  0  0
    6.6274    0.0070    7.4030 N   0  0  0  0  0  0  0  0  0  0  0  0
    7.7719    0.0068    6.5153 C   0  0  0  0  0  0  0  0  0  0  0  0
    5.3537    0.0052    6.8866 C   0  0  0  0  0  0  0  0  0  0  0  0
    4.2121    0.0054    7.7299 C   0  0  0  0  0  0  0  0  0  0  0  0
    2.9344    0.0038    7.1940 C   0  0  0  0  0  0  0  0  0  0  0  0
    2.6978    0.0019    5.8011 C   0  0  0  0  0  0  0  0  0  0  0  0
    1.3299    0.0009    5.3327 C   0  0  0  0  0  0  0  0  0  0  0  0
    0.7977    0.0001    4.0859 C   0  0  0  0  0  0  0  0  0  0  0  0
    1.6138    0.0000    2.5202 S   0  0  0  0  0  0  0  0  0  0  0  0
    0.0000    0.0000    1.7412 C   0  0  0  0  0  0  0  0  0  0  0  0
    0.0000    0.0000    0.0000 S   0  0  0  0  0  0  0  0  0  0  0  0
   -1.0320    0.0001    2.5101 N   0  0  0  0  0  0  0  0  0  0  0  0
   -0.6952   -0.0000    3.8795 C   0  0  0  0  0  0  0  0  0  0  0  0
   -1.5066   -0.0002    4.7781 O   0  0  0  0  0  0  0  0  0  0  0  0
    3.8383    0.0014    4.9676 C   0  0  0  0  0  0  0  0  0  0  0  0
    5.1238    0.0030    5.4850 C   0  0  0  0  0  0  0  0  0  0  0  0
    6.3851    0.9008    9.3162 H   0  0  0  0  0  0  0  0  0  0  0  0
    7.9035    0.0102    9.0541 H   0  0  0  0  0  0  0  0  0  0  0  0
    6.3867   -0.8825    9.3185 H   0  0  0  0  0  0  0  0  0  0  0  0
    7.7913   -0.8858    5.8641 H   0  0  0  0  0  0  0  0  0  0  0  0
    7.7894    0.8976    5.8616 H   0  0  0  0  0  0  0  0  0  0  0  0
    8.6934    0.0086    7.1102 H   0  0  0  0  0  0  0  0  0  0  0  0
    4.3256    0.0069    8.8125 H   0  0  0  0  0  0  0  0  0  0  0  0
    2.0771    0.0042    7.8721 H   0  0  0  0  0  0  0  0  0  0  0  0
    0.5573    0.0011    6.1107 H   0  0  0  0  0  0  0  0  0  0  0  0
   -2.3010    0.0032   -0.2946 Au  0  0  0  0  0  0  0  0  0  0  0  0
    3.7258   -0.0002    3.8829 H   0  0  0  0  0  0  0  0  0  0  0  0
    5.9621    0.0025    4.7907 H   0  0  0  0  0  0  0  0  0  0  0  0
  1 19  1  0  0  0  0
  1 18  1  0  0  0  0
  1 20  1  0  0  0  0
  2  1  1  0  0  0  0
  3 23  1  0  0  0  0
  3  2  1  0  0  0  0
  4  2  1  0  0  0  0
  4  5  2  0  0  0  0
  5 24  1  0  0  0  0
  6  5  1  0  0  0  0
  6 25  1  0  0  0  0
  7  6  2  0  0  0  0
  8  7  1  0  0  0  0
  8 26  1  0  0  0  0
  9  8  2  0  0  0  0
 10  9  1  0  0  0  0
 11 13  2  0  0  0  0
 11 10  1  0  0  0  0
 12 11  1  0  0  0  0
 13 14  2  0  0  0  0
 14  9  1  0  0  0  0
 14 15  2  0  0  0  0
 16 17  2  0  0  0  0
 16  7  1  0  0  0  0
 17  4  1  0  0  0  0
 21  3  1  0  0  0  0
 22  3  1  0  0  0  0
 27 12  1  0  0  0  0
 28 16  1  0  0  0  0
 29 17  1  0  0  0  0
M  END
