001-579-312.xyz
 OpenBabel07262113393D
COc1cc(ccc1OC)/C=C/1\SC(=NC1=O)S
 29 30  0  0  0  0  0  0  0  0999 V2000
    7.1019   -0.0104    7.5214 C   0  0  0  0  0  0  0  0  0  0  0  0
    5.8564   -0.0030    8.1814 O   0  0  0  0  0  0  0  0  0  0  0  0
    4.7273   -0.0020    7.4461 C   0  0  0  0  0  0  0  0  0  0  0  0
    4.6792   -0.0055    6.0488 C   0  0  0  0  0  0  0  0  0  0  0  0
    3.4572   -0.0048    5.3723 C   0  0  0  0  0  0  0  0  0  0  0  0
    2.2451   -0.0007    6.0788 C   0  0  0  0  0  0  0  0  0  0  0  0
    0.9325   -0.0004    5.4597 C   0  0  0  0  0  0  0  0  0  0  0  0
    0.5492   -0.0006    4.1618 C   0  0  0  0  0  0  0  0  0  0  0  0
    1.5251   -0.0000    2.6943 S   0  0  0  0  0  0  0  0  0  0  0  0
    0.0000   -0.0000    1.7476 C   0  0  0  0  0  0  0  0  0  0  0  0
    0.0000    0.0000    0.0000 S   0  0  0  0  0  0  0  0  0  0  0  0
   -1.1064   -0.0006    2.3925 N   0  0  0  0  0  0  0  0  0  0  0  0
   -0.9202   -0.0010    3.7910 C   0  0  0  0  0  0  0  0  0  0  0  0
   -1.8163   -0.0015    4.6006 O   0  0  0  0  0  0  0  0  0  0  0  0
    2.3000    0.0029    7.4962 C   0  0  0  0  0  0  0  0  0  0  0  0
    3.5081    0.0026    8.1823 C   0  0  0  0  0  0  0  0  0  0  0  0
    3.6382    0.0059    9.5274 O   0  0  0  0  0  0  0  0  0  0  0  0
    2.4727    0.0105   10.3190 C   0  0  0  0  0  0  0  0  0  0  0  0
    7.2259   -0.9111    6.8939 H   0  0  0  0  0  0  0  0  0  0  0  0
    7.8701   -0.0113    8.3054 H   0  0  0  0  0  0  0  0  0  0  0  0
    7.2339    0.8853    6.8883 H   0  0  0  0  0  0  0  0  0  0  0  0
    5.6034   -0.0091    5.4722 H   0  0  0  0  0  0  0  0  0  0  0  0
    3.4676   -0.0082    4.2829 H   0  0  0  0  0  0  0  0  0  0  0  0
    0.0781   -0.0001    6.1462 H   0  0  0  0  0  0  0  0  0  0  0  0
    2.2507    0.0080   -0.5096 Au  0  0  0  0  0  0  0  0  0  0  0  0
    1.3608    0.0061    8.0481 H   0  0  0  0  0  0  0  0  0  0  0  0
    1.8564    0.9090   10.1351 H   0  0  0  0  0  0  0  0  0  0  0  0
    2.8055    0.0128   11.3651 H   0  0  0  0  0  0  0  0  0  0  0  0
    1.8529   -0.8866   10.1402 H   0  0  0  0  0  0  0  0  0  0  0  0
  1  2  1  0  0  0  0
  1 20  1  0  0  0  0
  3  2  1  0  0  0  0
  3 16  2  0  0  0  0
  4  3  1  0  0  0  0
  5  4  2  0  0  0  0
  5  6  1  0  0  0  0
  6 15  2  0  0  0  0
  7  6  1  0  0  0  0
  7 24  1  0  0  0  0
  8  7  2  0  0  0  0
  9  8  1  0  0  0  0
 10 12  2  0  0  0  0
 10  9  1  0  0  0  0
 11 10  1  0  0  0  0
 12 13  2  0  0  0  0
 13  8  1  0  0  0  0
 13 14  2  0  0  0  0
 15 26  1  0  0  0  0
 15 16  1  0  0  0  0
 16 17  1  0  0  0  0
 17 18  1  0  0  0  0
 18 28  1  0  0  0  0
 19  1  1  0  0  0  0
 21  1  1  0  0  0  0
 22  4  1  0  0  0  0
 23  5  1  0  0  0  0
 25 11  1  0  0  0  0
 27 18  1  0  0  0  0
 29 18  1  0  0  0  0
M  END
