001-579-446.xyz
 OpenBabel07262113393D
CC(Oc1ccc(cc1)/C=C/1\SC(=NC1=O)S)C
 31 32  0  0  0  0  0  0  0  0999 V2000
    8.8505   -0.4744    7.6298 C   0  0  0  0  0  0  0  0  0  0  0  0
    7.7632    0.0708    6.7175 C   0  0  0  0  0  0  0  0  0  0  0  0
    8.0276    1.5056    6.2727 C   0  0  0  0  0  0  0  0  0  0  0  0
    6.5440   -0.0040    7.4703 O   0  0  0  0  0  0  0  0  0  0  0  0
    5.3397    0.0087    6.8640 C   0  0  0  0  0  0  0  0  0  0  0  0
    4.2204    0.0064    7.7181 C   0  0  0  0  0  0  0  0  0  0  0  0
    2.9393    0.0023    7.1926 C   0  0  0  0  0  0  0  0  0  0  0  0
    2.7076    0.0020    5.7963 C   0  0  0  0  0  0  0  0  0  0  0  0
    1.3350    0.0006    5.3282 C   0  0  0  0  0  0  0  0  0  0  0  0
    0.8049    0.0000    4.0827 C   0  0  0  0  0  0  0  0  0  0  0  0
    1.6174    0.0000    2.5166 S   0  0  0  0  0  0  0  0  0  0  0  0
    0.0000   -0.0000    1.7393 C   0  0  0  0  0  0  0  0  0  0  0  0
    0.0000    0.0000    0.0000 S   0  0  0  0  0  0  0  0  0  0  0  0
   -1.0304   -0.0001    2.5102 N   0  0  0  0  0  0  0  0  0  0  0  0
   -0.6919   -0.0003    3.8777 C   0  0  0  0  0  0  0  0  0  0  0  0
   -1.4988   -0.0005    4.7788 O   0  0  0  0  0  0  0  0  0  0  0  0
    3.8401    0.0051    4.9578 C   0  0  0  0  0  0  0  0  0  0  0  0
    5.1339    0.0101    5.4723 C   0  0  0  0  0  0  0  0  0  0  0  0
    9.8228   -0.4679    7.1145 H   0  0  0  0  0  0  0  0  0  0  0  0
    8.6192   -1.5059    7.9331 H   0  0  0  0  0  0  0  0  0  0  0  0
    8.9311    0.1434    8.5376 H   0  0  0  0  0  0  0  0  0  0  0  0
    7.6760   -0.5876    5.8348 H   0  0  0  0  0  0  0  0  0  0  0  0
    8.9616    1.5607    5.6924 H   0  0  0  0  0  0  0  0  0  0  0  0
    7.2117    1.8940    5.6460 H   0  0  0  0  0  0  0  0  0  0  0  0
    8.1247    2.1600    7.1528 H   0  0  0  0  0  0  0  0  0  0  0  0
    4.3945    0.0053    8.7953 H   0  0  0  0  0  0  0  0  0  0  0  0
    2.0817   -0.0002    7.8698 H   0  0  0  0  0  0  0  0  0  0  0  0
    0.5635    0.0000    6.1071 H   0  0  0  0  0  0  0  0  0  0  0  0
   -2.3004    0.0029   -0.3002 Au  0  0  0  0  0  0  0  0  0  0  0  0
    3.7225    0.0064    3.8738 H   0  0  0  0  0  0  0  0  0  0  0  0
    5.9748    0.0154    4.7804 H   0  0  0  0  0  0  0  0  0  0  0  0
  1 20  1  0  0  0  0
  1 21  1  0  0  0  0
  2  4  1  0  0  0  0
  2  1  1  0  0  0  0
  3  2  1  0  0  0  0
  3 25  1  0  0  0  0
  5  4  1  0  0  0  0
  5  6  2  0  0  0  0
  6 26  1  0  0  0  0
  7  6  1  0  0  0  0
  7 27  1  0  0  0  0
  8  7  2  0  0  0  0
  9  8  1  0  0  0  0
  9 28  1  0  0  0  0
 10  9  2  0  0  0  0
 11 10  1  0  0  0  0
 12 14  2  0  0  0  0
 12 11  1  0  0  0  0
 13 12  1  0  0  0  0
 14 15  2  0  0  0  0
 15 10  1  0  0  0  0
 15 16  2  0  0  0  0
 17 18  2  0  0  0  0
 17  8  1  0  0  0  0
 18  5  1  0  0  0  0
 19  1  1  0  0  0  0
 22  2  1  0  0  0  0
 23  3  1  0  0  0  0
 24  3  1  0  0  0  0
 29 13  1  0  0  0  0
 30 17  1  0  0  0  0
 31 18  1  0  0  0  0
M  END
