001-579-432.xyz
 OpenBabel07262113393D
COc1ccccc1/C=C/1\SC(=NC1=O)S
 25 26  0  0  0  0  0  0  0  0999 V2000
    4.6644   -1.0485    3.9085 C   0  0  0  0  0  0  0  0  0  0  0  0
    3.4411   -0.6509    4.4838 O   0  0  0  0  0  0  0  0  0  0  0  0
    3.4101   -0.0836    5.7098 C   0  0  0  0  0  0  0  0  0  0  0  0
    4.5542    0.1210    6.4903 C   0  0  0  0  0  0  0  0  0  0  0  0
    4.4419    0.6658    7.7725 C   0  0  0  0  0  0  0  0  0  0  0  0
    3.1897    0.9994    8.2910 C   0  0  0  0  0  0  0  0  0  0  0  0
    2.0544    0.7947    7.5105 C   0  0  0  0  0  0  0  0  0  0  0  0
    2.1270    0.2764    6.2018 C   0  0  0  0  0  0  0  0  0  0  0  0
    0.8778    0.1411    5.4665 C   0  0  0  0  0  0  0  0  0  0  0  0
    0.5460    0.0225    4.1599 C   0  0  0  0  0  0  0  0  0  0  0  0
    1.5203   -0.0000    2.6904 S   0  0  0  0  0  0  0  0  0  0  0  0
   -0.0000    0.0000    1.7488 C   0  0  0  0  0  0  0  0  0  0  0  0
    0.0000    0.0000    0.0000 S   0  0  0  0  0  0  0  0  0  0  0  0
   -1.1154   -0.0178    2.3843 N   0  0  0  0  0  0  0  0  0  0  0  0
   -0.9297   -0.0097    3.7786 C   0  0  0  0  0  0  0  0  0  0  0  0
   -1.8260   -0.0155    4.5883 O   0  0  0  0  0  0  0  0  0  0  0  0
    5.1637   -1.8225    4.5163 H   0  0  0  0  0  0  0  0  0  0  0  0
    4.4157   -1.4669    2.9243 H   0  0  0  0  0  0  0  0  0  0  0  0
    5.3505   -0.1935    3.7777 H   0  0  0  0  0  0  0  0  0  0  0  0
    5.5369   -0.1526    6.1081 H   0  0  0  0  0  0  0  0  0  0  0  0
    5.3444    0.8180    8.3691 H   0  0  0  0  0  0  0  0  0  0  0  0
    3.0978    1.4134    9.2968 H   0  0  0  0  0  0  0  0  0  0  0  0
    1.0690    1.0519    7.9062 H   0  0  0  0  0  0  0  0  0  0  0  0
   -0.0189    0.1998    6.0955 H   0  0  0  0  0  0  0  0  0  0  0  0
    2.2504    0.0926   -0.5034 Au  0  0  0  0  0  0  0  0  0  0  0  0
  1  2  1  0  0  0  0
  1 17  1  0  0  0  0
  2  3  1  0  0  0  0
  3  8  2  0  0  0  0
  3  4  1  0  0  0  0
  4  5  2  0  0  0  0
  5  6  1  0  0  0  0
  5 21  1  0  0  0  0
  6 22  1  0  0  0  0
  7 23  1  0  0  0  0
  7  6  2  0  0  0  0
  8  7  1  0  0  0  0
  9 24  1  0  0  0  0
  9  8  1  0  0  0  0
 10  9  2  0  0  0  0
 11 10  1  0  0  0  0
 12 14  2  0  0  0  0
 12 11  1  0  0  0  0
 13 12  1  0  0  0  0
 14 15  2  0  0  0  0
 15 10  1  0  0  0  0
 15 16  2  0  0  0  0
 18  1  1  0  0  0  0
 19  1  1  0  0  0  0
 20  4  1  0  0  0  0
 25 13  1  0  0  0  0
M  END
