001-576-205.xyz
 OpenBabel07262113393D
Cn1ncc(c1)Cn1c(S)nc2c(c1=O)cc(s2)C
 31 33  0  0  1  0  0  0  0  0999 V2000
   -2.0521    0.0628    7.6225 C   0  0  0  0  0  0  0  0  0  0  0  0
   -1.4290    0.0504    6.2628 C   0  0  0  0  0  0  0  0  0  0  0  0
   -0.1009    0.0612    5.9342 C   0  0  0  0  0  0  0  0  0  0  0  0
    0.1259    0.0387    4.5214 C   0  0  1  0  0  0  0  0  0  0  0  0
   -1.0523    0.0144    3.7781 C   0  0  0  0  0  0  0  0  0  0  0  0
   -1.1350    0.0011    2.4311 N   0  0  0  0  0  0  0  0  0  0  0  0
    0.0000   -0.0000    1.7775 C   0  0  0  0  0  0  0  0  0  0  0  0
    0.0000    0.0000    0.0000 S   0  0  0  0  0  0  0  0  0  0  0  0
    1.2287    0.0000    2.3927 N   0  0  0  0  0  0  0  0  0  0  0  0
    2.4940    0.0354    1.6268 C   0  0  0  0  0  0  0  0  0  0  0  0
    2.9941    1.4255    1.3892 C   0  0  0  0  0  0  0  0  0  0  0  0
    2.8709    2.2353    0.2301 C   0  0  0  0  0  0  0  0  0  0  0  0
    3.4226    3.4322    0.4090 N   0  0  0  0  0  0  0  0  0  0  0  0
    3.8946    3.4180    1.6670 N   0  0  0  0  0  0  0  0  0  0  0  0
    4.5725    4.5841    2.1891 C   0  0  0  0  0  0  0  0  0  0  0  0
    3.6639    2.2374    2.2974 C   0  0  0  0  0  0  0  0  0  0  0  0
    1.3836    0.0517    3.8145 C   0  0  0  0  0  0  0  0  0  0  0  0
    2.5007    0.1013    4.3072 O   0  0  0  0  0  0  0  0  0  0  0  0
   -2.4515    0.0165    4.8241 S   0  0  0  0  0  0  0  0  0  0  0  0
   -2.6984    0.9443    7.7694 H   0  0  0  0  0  0  0  0  0  0  0  0
   -2.6733   -0.8316    7.7971 H   0  0  0  0  0  0  0  0  0  0  0  0
   -1.2665    0.0858    8.3915 H   0  0  0  0  0  0  0  0  0  0  0  0
    0.7054    0.0824    6.6677 H   0  0  0  0  0  0  0  0  0  0  0  0
   -2.2911   -0.0594   -0.3232 Au  0  0  0  0  0  0  0  0  0  0  0  0
    2.3294   -0.4941    0.6796 H   0  0  0  0  0  0  0  0  0  0  0  0
    3.2164   -0.5336    2.2231 H   0  0  0  0  0  0  0  0  0  0  0  0
    2.3986    1.9821   -0.7185 H   0  0  0  0  0  0  0  0  0  0  0  0
    4.8351    4.4060    3.2399 H   0  0  0  0  0  0  0  0  0  0  0  0
    5.4892    4.7848    1.6139 H   0  0  0  0  0  0  0  0  0  0  0  0
    3.9150    5.4633    2.1216 H   0  0  0  0  0  0  0  0  0  0  0  0
    3.9592    2.0448    3.3259 H   0  0  0  0  0  0  0  0  0  0  0  0
  1 20  1  0  0  0  0
  1 21  1  0  0  0  0
  1 22  1  0  0  0  0
  2  1  1  0  0  0  0
  3  2  2  0  0  0  0
  3 23  1  0  0  0  0
  4  5  1  6  0  0  0
  4  3  1  0  0  0  0
  5 19  1  0  0  0  0
  6  5  2  0  0  0  0
  7  9  1  0  0  0  0
  7  6  2  0  0  0  0
  8  7  1  0  0  0  0
  9 17  1  0  0  0  0
 10 26  1  0  0  0  0
 10  9  1  0  0  0  0
 11 10  1  0  0  0  0
 11 16  2  0  0  0  0
 12 13  2  0  0  0  0
 12 11  1  0  0  0  0
 13 14  1  0  0  0  0
 14 15  1  0  0  0  0
 14 16  1  0  0  0  0
 15 28  1  0  0  0  0
 16 31  1  0  0  0  0
 17 18  2  0  0  0  0
 17  4  1  0  0  0  0
 19  2  1  0  0  0  0
 24  8  1  0  0  0  0
 25 10  1  0  0  0  0
 27 12  1  0  0  0  0
 29 15  1  0  0  0  0
 30 15  1  0  0  0  0
M  RAD  1   4   2
M  END
