001-579-516.xyz
 OpenBabel07262113393D
COc1ccc(cc1/C=C/1\SC(=NC1=O)S)Cl
 25 26  0  0  0  0  0  0  0  0999 V2000
    4.6455   -1.1294    3.9157 C   0  0  0  0  0  0  0  0  0  0  0  0
    3.4295   -0.7027    4.4870 O   0  0  0  0  0  0  0  0  0  0  0  0
    3.4137   -0.0995    5.6952 C   0  0  0  0  0  0  0  0  0  0  0  0
    4.5636    0.1148    6.4643 C   0  0  0  0  0  0  0  0  0  0  0  0
    4.4746    0.6959    7.7309 C   0  0  0  0  0  0  0  0  0  0  0  0
    3.2249    1.0550    8.2365 C   0  0  0  0  0  0  0  0  0  0  0  0
    3.1002    1.7646    9.8280 Cl  0  0  0  0  0  0  0  0  0  0  0  0
    2.0752    0.8463    7.4789 C   0  0  0  0  0  0  0  0  0  0  0  0
    2.1397    0.2908    6.1866 C   0  0  0  0  0  0  0  0  0  0  0  0
    0.8828    0.1490    5.4634 C   0  0  0  0  0  0  0  0  0  0  0  0
    0.5504    0.0244    4.1582 C   0  0  0  0  0  0  0  0  0  0  0  0
    1.5228    0.0000    2.6892 S   0  0  0  0  0  0  0  0  0  0  0  0
    0.0000    0.0000    1.7476 C   0  0  0  0  0  0  0  0  0  0  0  0
    0.0000    0.0000    0.0000 S   0  0  0  0  0  0  0  0  0  0  0  0
   -1.1142   -0.0192    2.3848 N   0  0  0  0  0  0  0  0  0  0  0  0
   -0.9275   -0.0107    3.7783 C   0  0  0  0  0  0  0  0  0  0  0  0
   -1.8208   -0.0176    4.5903 O   0  0  0  0  0  0  0  0  0  0  0  0
    5.3393   -0.2853    3.7574 H   0  0  0  0  0  0  0  0  0  0  0  0
    4.3865   -1.5722    2.9452 H   0  0  0  0  0  0  0  0  0  0  0  0
    5.1398   -1.8915    4.5424 H   0  0  0  0  0  0  0  0  0  0  0  0
    5.5422   -0.1798    6.0876 H   0  0  0  0  0  0  0  0  0  0  0  0
    5.3725    0.8599    8.3280 H   0  0  0  0  0  0  0  0  0  0  0  0
    1.1043    1.1318    7.8861 H   0  0  0  0  0  0  0  0  0  0  0  0
   -0.0105    0.2107    6.0965 H   0  0  0  0  0  0  0  0  0  0  0  0
    2.2495    0.1003   -0.5060 Au  0  0  0  0  0  0  0  0  0  0  0  0
  1  2  1  0  0  0  0
  1 20  1  0  0  0  0
  2  3  1  0  0  0  0
  3  9  2  0  0  0  0
  3  4  1  0  0  0  0
  4  5  2  0  0  0  0
  5  6  1  0  0  0  0
  5 22  1  0  0  0  0
  6  7  1  0  0  0  0
  8 23  1  0  0  0  0
  8  6  2  0  0  0  0
  9  8  1  0  0  0  0
 10 24  1  0  0  0  0
 10  9  1  0  0  0  0
 11 10  2  0  0  0  0
 12 11  1  0  0  0  0
 13 15  2  0  0  0  0
 13 12  1  0  0  0  0
 14 13  1  0  0  0  0
 15 16  2  0  0  0  0
 16 11  1  0  0  0  0
 16 17  2  0  0  0  0
 18  1  1  0  0  0  0
 19  1  1  0  0  0  0
 21  4  1  0  0  0  0
 25 14  1  0  0  0  0
M  END
