001-635-275.xyz
 OpenBabel07262113393D
COc1cccc(c1O)/C=C/1\SC(=NC1=O)S
 26 27  0  0  0  0  0  0  0  0999 V2000
    6.9209   -0.1543    6.5566 C   0  0  0  0  0  0  0  0  0  0  0  0
    5.6933   -0.2710    5.8704 O   0  0  0  0  0  0  0  0  0  0  0  0
    4.5436    0.1192    6.4991 C   0  0  0  0  0  0  0  0  0  0  0  0
    4.4504    0.6453    7.7837 C   0  0  0  0  0  0  0  0  0  0  0  0
    3.1850    0.9787    8.2938 C   0  0  0  0  0  0  0  0  0  0  0  0
    2.0490    0.7904    7.5224 C   0  0  0  0  0  0  0  0  0  0  0  0
    2.1189    0.2786    6.2019 C   0  0  0  0  0  0  0  0  0  0  0  0
    0.8701    0.1467    5.4660 C   0  0  0  0  0  0  0  0  0  0  0  0
    0.5430    0.0279    4.1587 C   0  0  0  0  0  0  0  0  0  0  0  0
    1.5199   -0.0000    2.6901 S   0  0  0  0  0  0  0  0  0  0  0  0
    0.0000   -0.0000    1.7488 C   0  0  0  0  0  0  0  0  0  0  0  0
    0.0000    0.0000    0.0000 S   0  0  0  0  0  0  0  0  0  0  0  0
   -1.1171   -0.0140    2.3821 N   0  0  0  0  0  0  0  0  0  0  0  0
   -0.9336   -0.0041    3.7757 C   0  0  0  0  0  0  0  0  0  0  0  0
   -1.8300   -0.0073    4.5853 O   0  0  0  0  0  0  0  0  0  0  0  0
    3.3880   -0.0739    5.7093 C   0  0  0  0  0  0  0  0  0  0  0  0
    3.5328   -0.6288    4.4881 O   0  0  0  0  0  0  0  0  0  0  0  0
    7.1381    0.8964    6.8171 H   0  0  0  0  0  0  0  0  0  0  0  0
    6.9254   -0.7607    7.4793 H   0  0  0  0  0  0  0  0  0  0  0  0
    7.6995   -0.5252    5.8777 H   0  0  0  0  0  0  0  0  0  0  0  0
    5.3421    0.7903    8.3933 H   0  0  0  0  0  0  0  0  0  0  0  0
    3.1019    1.3839    9.3039 H   0  0  0  0  0  0  0  0  0  0  0  0
    1.0668    1.0498    7.9225 H   0  0  0  0  0  0  0  0  0  0  0  0
   -0.0274    0.2043    6.0937 H   0  0  0  0  0  0  0  0  0  0  0  0
    2.2522    0.0356   -0.5021 Au  0  0  0  0  0  0  0  0  0  0  0  0
    4.4820   -0.7910    4.3559 H   0  0  0  0  0  0  0  0  0  0  0  0
  1 18  1  0  0  0  0
  1 19  1  0  0  0  0
  2  3  1  0  0  0  0
  2  1  1  0  0  0  0
  3  4  2  0  0  0  0
  4  5  1  0  0  0  0
  4 21  1  0  0  0  0
  5 22  1  0  0  0  0
  6 23  1  0  0  0  0
  6  5  2  0  0  0  0
  7  6  1  0  0  0  0
  8 24  1  0  0  0  0
  8  7  1  0  0  0  0
  9  8  2  0  0  0  0
 10  9  1  0  0  0  0
 11 13  2  0  0  0  0
 11 10  1  0  0  0  0
 12 11  1  0  0  0  0
 13 14  2  0  0  0  0
 14  9  1  0  0  0  0
 14 15  2  0  0  0  0
 16  7  2  0  0  0  0
 16  3  1  0  0  0  0
 17 16  1  0  0  0  0
 20  1  1  0  0  0  0
 25 12  1  0  0  0  0
 26 17  1  0  0  0  0
M  END
