001-579-272.xyz
 OpenBabel07262113393D
CCOc1ccccc1/C=C/1\SC(=NC1=O)S
 28 29  0  0  0  0  0  0  0  0999 V2000
    5.4293    0.6706    2.7427 C   0  0  0  0  0  0  0  0  0  0  0  0
    4.9079   -0.6502    3.2866 C   0  0  0  0  0  0  0  0  0  0  0  0
    3.7454   -0.4848    4.0920 O   0  0  0  0  0  0  0  0  0  0  0  0
    3.8094   -0.0061    5.3524 C   0  0  0  0  0  0  0  0  0  0  0  0
    5.0087    0.1882    6.0502 C   0  0  0  0  0  0  0  0  0  0  0  0
    4.9899    0.6214    7.3780 C   0  0  0  0  0  0  0  0  0  0  0  0
    3.7772    0.8600    8.0279 C   0  0  0  0  0  0  0  0  0  0  0  0
    2.5874    0.6705    7.3311 C   0  0  0  0  0  0  0  0  0  0  0  0
    2.5631    0.2580    5.9823 C   0  0  0  0  0  0  0  0  0  0  0  0
    1.2577    0.1333    5.3526 C   0  0  0  0  0  0  0  0  0  0  0  0
    0.7927    0.0297    4.0853 C   0  0  0  0  0  0  0  0  0  0  0  0
    1.6084    0.0000    2.5195 S   0  0  0  0  0  0  0  0  0  0  0  0
    0.0000    0.0000    1.7397 C   0  0  0  0  0  0  0  0  0  0  0  0
    0.0000    0.0000    0.0000 S   0  0  0  0  0  0  0  0  0  0  0  0
   -1.0432   -0.0084    2.4995 N   0  0  0  0  0  0  0  0  0  0  0  0
   -0.7111    0.0039    3.8635 C   0  0  0  0  0  0  0  0  0  0  0  0
   -1.5226    0.0047    4.7613 O   0  0  0  0  0  0  0  0  0  0  0  0
    6.2843    0.4906    2.0723 H   0  0  0  0  0  0  0  0  0  0  0  0
    5.7606    1.3426    3.5482 H   0  0  0  0  0  0  0  0  0  0  0  0
    4.6408    1.1833    2.1719 H   0  0  0  0  0  0  0  0  0  0  0  0
    5.6814   -1.2001    3.8494 H   0  0  0  0  0  0  0  0  0  0  0  0
    4.5751   -1.3005    2.4649 H   0  0  0  0  0  0  0  0  0  0  0  0
    5.9643   -0.0074    5.5660 H   0  0  0  0  0  0  0  0  0  0  0  0
    5.9358    0.7649    7.9056 H   0  0  0  0  0  0  0  0  0  0  0  0
    3.7596    1.1906    9.0680 H   0  0  0  0  0  0  0  0  0  0  0  0
    1.6316    0.8552    7.8272 H   0  0  0  0  0  0  0  0  0  0  0  0
    0.4215    0.1797    6.0615 H   0  0  0  0  0  0  0  0  0  0  0  0
   -2.3027   -0.0238   -0.2928 Au  0  0  0  0  0  0  0  0  0  0  0  0
  1  2  1  0  0  0  0
  1 19  1  0  0  0  0
  2 21  1  0  0  0  0
  2  3  1  0  0  0  0
  3  4  1  0  0  0  0
  4  9  2  0  0  0  0
  4  5  1  0  0  0  0
  5  6  2  0  0  0  0
  6 24  1  0  0  0  0
  6  7  1  0  0  0  0
  7 25  1  0  0  0  0
  8 26  1  0  0  0  0
  8  7  2  0  0  0  0
  9  8  1  0  0  0  0
 10  9  1  0  0  0  0
 10 27  1  0  0  0  0
 11 10  2  0  0  0  0
 12 11  1  0  0  0  0
 13 15  2  0  0  0  0
 13 12  1  0  0  0  0
 14 13  1  0  0  0  0
 15 16  2  0  0  0  0
 16 11  1  0  0  0  0
 16 17  2  0  0  0  0
 18  1  1  0  0  0  0
 20  1  1  0  0  0  0
 22  2  1  0  0  0  0
 23  5  1  0  0  0  0
 28 14  1  0  0  0  0
M  END
