001-858-946.xyz
 OpenBabel07262113393D
Fc1ccc(cc1)c1nnc(n1/N=C/c1ccc(cc1)Cl)S
 32 34  0  0  0  0  0  0  0  0999 V2000
    3.3731   -0.2872    8.7485 F   0  0  0  0  0  0  0  0  0  0  0  0
    2.7367   -0.2383    7.5704 C   0  0  0  0  0  0  0  0  0  0  0  0
    1.4060   -0.6486    7.4980 C   0  0  0  0  0  0  0  0  0  0  0  0
    0.7518   -0.5997    6.2715 C   0  0  0  0  0  0  0  0  0  0  0  0
    1.4150   -0.1449    5.1133 C   0  0  0  0  0  0  0  0  0  0  0  0
    2.7543    0.2715    5.2208 C   0  0  0  0  0  0  0  0  0  0  0  0
    3.4170    0.2235    6.4479 C   0  0  0  0  0  0  0  0  0  0  0  0
    0.6358   -0.1039    3.8716 C   0  0  0  0  0  0  0  0  0  0  0  0
   -0.6754   -0.1486    3.8210 N   0  0  0  0  0  0  0  0  0  0  0  0
   -1.0693   -0.0911    2.5184 N   0  0  0  0  0  0  0  0  0  0  0  0
    0.0000   -0.0000    1.7542 C   0  0  0  0  0  0  0  0  0  0  0  0
    0.0000    0.0000    0.0000 S   0  0  0  0  0  0  0  0  0  0  0  0
    1.1308    0.0000    2.5692 N   0  0  0  0  0  0  0  0  0  0  0  0
    2.4568   -0.0606    2.2762 N   0  0  0  0  0  0  0  0  0  0  0  0
    2.8898    0.3836    1.1540 C   0  0  0  0  0  0  0  0  0  0  0  0
    4.3071    0.2921    0.8060 C   0  0  0  0  0  0  0  0  0  0  0  0
    5.2354   -0.3552    1.6443 C   0  0  0  0  0  0  0  0  0  0  0  0
    6.5796   -0.4154    1.2969 C   0  0  0  0  0  0  0  0  0  0  0  0
    7.0084    0.1700    0.0975 C   0  0  0  0  0  0  0  0  0  0  0  0
    8.6929    0.0915   -0.3400 Cl  0  0  0  0  0  0  0  0  0  0  0  0
    6.1037    0.8108   -0.7532 C   0  0  0  0  0  0  0  0  0  0  0  0
    4.7581    0.8668   -0.3942 C   0  0  0  0  0  0  0  0  0  0  0  0
    0.9036   -1.0025    8.3998 H   0  0  0  0  0  0  0  0  0  0  0  0
   -0.2897   -0.9112    6.1859 H   0  0  0  0  0  0  0  0  0  0  0  0
    3.2822    0.6385    4.3437 H   0  0  0  0  0  0  0  0  0  0  0  0
    4.4548    0.5464    6.5457 H   0  0  0  0  0  0  0  0  0  0  0  0
   -2.2646   -0.5029   -0.2011 Au  0  0  0  0  0  0  0  0  0  0  0  0
    2.2292    0.8666    0.4180 H   0  0  0  0  0  0  0  0  0  0  0  0
    4.8818   -0.8142    2.5689 H   0  0  0  0  0  0  0  0  0  0  0  0
    7.3035   -0.9157    1.9414 H   0  0  0  0  0  0  0  0  0  0  0  0
    6.4563    1.2572   -1.6835 H   0  0  0  0  0  0  0  0  0  0  0  0
    4.0451    1.3663   -1.0551 H   0  0  0  0  0  0  0  0  0  0  0  0
  2  1  1  0  0  0  0
  3  2  1  0  0  0  0
  3 23  1  0  0  0  0
  4  3  2  0  0  0  0
  5  6  2  0  0  0  0
  5  4  1  0  0  0  0
  6  7  1  0  0  0  0
  7 26  1  0  0  0  0
  7  2  2  0  0  0  0
  8  5  1  0  0  0  0
  9  8  2  0  0  0  0
 10  9  1  0  0  0  0
 11 10  2  0  0  0  0
 11 13  1  0  0  0  0
 12 11  1  0  0  0  0
 13  8  1  0  0  0  0
 14 13  1  0  0  0  0
 15 14  2  0  0  0  0
 16 15  1  0  0  0  0
 16 17  2  0  0  0  0
 17 29  1  0  0  0  0
 18 17  1  0  0  0  0
 18 30  1  0  0  0  0
 19 18  2  0  0  0  0
 20 19  1  0  0  0  0
 21 22  2  0  0  0  0
 21 19  1  0  0  0  0
 22 16  1  0  0  0  0
 24  4  1  0  0  0  0
 25  6  1  0  0  0  0
 27 12  1  0  0  0  0
 28 15  1  0  0  0  0
 31 21  1  0  0  0  0
 32 22  1  0  0  0  0
M  END
