001-576-838.xyz
 OpenBabel07262113393D
Cc1ccc(cc1C)n1c(S)nc2c(c1=O)c1CCCc1s2
 38 41  0  0  1  0  0  0  0  0999 V2000
   -5.9328   -0.0269   -0.9888 C   0  0  0  0  0  0  0  0  0  0  0  0
   -4.7087   -0.0267   -0.1120 C   0  0  0  0  0  0  0  0  0  0  0  0
   -4.1232    1.1806    0.2910 C   0  0  0  0  0  0  0  0  0  0  0  0
   -2.9904    1.2057    1.1030 C   0  0  0  0  0  0  0  0  0  0  0  0
   -2.4275   -0.0010    1.5144 C   0  0  0  0  0  0  0  0  0  0  0  0
   -3.0012   -1.2148    1.1310 C   0  0  0  0  0  0  0  0  0  0  0  0
   -4.1372   -1.2472    0.3181 C   0  0  0  0  0  0  0  0  0  0  0  0
   -4.7431   -2.5638   -0.0915 C   0  0  0  0  0  0  0  0  0  0  0  0
   -1.2547   -0.0011    2.3502 N   0  0  0  0  0  0  0  0  0  0  0  0
    0.0000   -0.0000    1.7756 C   0  0  0  0  0  0  0  0  0  0  0  0
    0.0000    0.0000    0.0000 S   0  0  0  0  0  0  0  0  0  0  0  0
    1.1081    0.0000    2.4650 N   0  0  0  0  0  0  0  0  0  0  0  0
    0.9768   -0.0042    3.8107 C   0  0  0  0  0  0  0  0  0  0  0  0
   -0.2316   -0.0025    4.5152 C   0  0  2  0  0  0  0  0  0  0  0  0
   -1.4718   -0.0025    3.7724 C   0  0  0  0  0  0  0  0  0  0  0  0
   -2.6021   -0.0034    4.2193 O   0  0  0  0  0  0  0  0  0  0  0  0
   -0.0303    0.0100    5.9296 C   0  0  0  0  0  0  0  0  0  0  0  0
   -0.9075   -0.0418    7.1499 C   0  0  0  0  0  0  0  0  0  0  0  0
    0.0947    0.2866    8.2943 C   0  0  0  0  0  0  0  0  0  0  0  0
    1.5206   -0.0424    7.7570 C   0  0  0  0  0  0  0  0  0  0  0  0
    1.2933    0.0162    6.2738 C   0  0  0  0  0  0  0  0  0  0  0  0
    2.3614    0.0008    4.8930 S   0  0  0  0  0  0  0  0  0  0  0  0
   -6.2501    0.9961   -1.2350 H   0  0  0  0  0  0  0  0  0  0  0  0
   -6.7795   -0.5359   -0.4983 H   0  0  0  0  0  0  0  0  0  0  0  0
   -5.7512   -0.5632   -1.9353 H   0  0  0  0  0  0  0  0  0  0  0  0
   -4.5671    2.1234   -0.0381 H   0  0  0  0  0  0  0  0  0  0  0  0
   -2.5396    2.1489    1.4149 H   0  0  0  0  0  0  0  0  0  0  0  0
   -2.5452   -2.1456    1.4738 H   0  0  0  0  0  0  0  0  0  0  0  0
   -4.7595   -2.6767   -1.1886 H   0  0  0  0  0  0  0  0  0  0  0  0
   -5.7885   -2.6496    0.2491 H   0  0  0  0  0  0  0  0  0  0  0  0
   -4.1814   -3.4105    0.3270 H   0  0  0  0  0  0  0  0  0  0  0  0
    2.2893   -0.0084   -0.3368 Au  0  0  0  0  0  0  0  0  0  0  0  0
   -1.3486   -1.0485    7.2610 H   0  0  0  0  0  0  0  0  0  0  0  0
   -1.7527    0.6607    7.1022 H   0  0  0  0  0  0  0  0  0  0  0  0
   -0.1334   -0.2501    9.2268 H   0  0  0  0  0  0  0  0  0  0  0  0
    0.0423    1.3640    8.5163 H   0  0  0  0  0  0  0  0  0  0  0  0
    1.8542   -1.0505    8.0660 H   0  0  0  0  0  0  0  0  0  0  0  0
    2.2799    0.6684    8.1205 H   0  0  0  0  0  0  0  0  0  0  0  0
  1 24  1  0  0  0  0
  1  2  1  0  0  0  0
  2  3  2  0  0  0  0
  2  7  1  0  0  0  0
  3  4  1  0  0  0  0
  4 27  1  0  0  0  0
  4  5  2  0  0  0  0
  5  9  1  0  0  0  0
  6 28  1  0  0  0  0
  6  5  1  0  0  0  0
  7  6  2  0  0  0  0
  8 30  1  0  0  0  0
  8  7  1  0  0  0  0
  8 31  1  0  0  0  0
  9 15  1  0  0  0  0
 10  9  1  0  0  0  0
 10 12  2  0  0  0  0
 11 10  1  0  0  0  0
 12 13  2  0  0  0  0
 13 14  1  0  0  0  0
 13 22  1  0  0  0  0
 14 15  1  6  0  0  0
 14 17  1  0  0  0  0
 15 16  2  0  0  0  0
 17 21  2  0  0  0  0
 17 18  1  0  0  0  0
 18 33  1  0  0  0  0
 18 19  1  0  0  0  0
 19 36  1  0  0  0  0
 19 35  1  0  0  0  0
 20 37  1  0  0  0  0
 20 38  1  0  0  0  0
 20 19  1  0  0  0  0
 21 20  1  0  0  0  0
 22 21  1  0  0  0  0
 23  1  1  0  0  0  0
 25  1  1  0  0  0  0
 26  3  1  0  0  0  0
 29  8  1  0  0  0  0
 32 11  1  0  0  0  0
 34 18  1  0  0  0  0
M  RAD  1  14   2
M  END
