001-594-270.xyz
 OpenBabel07262113393D
Cc1ccc(s1)/C=C/1\SC(=NC1=O)S
 21 22  0  0  0  0  0  0  0  0999 V2000
    5.8548   -0.0040    8.1868 C   0  0  0  0  0  0  0  0  0  0  0  0
    4.8507   -0.0031    7.0776 C   0  0  0  0  0  0  0  0  0  0  0  0
    5.0829   -0.0028    5.7165 C   0  0  0  0  0  0  0  0  0  0  0  0
    3.8998   -0.0019    4.9354 C   0  0  0  0  0  0  0  0  0  0  0  0
    2.7396   -0.0014    5.6981 C   0  0  0  0  0  0  0  0  0  0  0  0
    1.3558   -0.0007    5.3153 C   0  0  0  0  0  0  0  0  0  0  0  0
    0.8074   -0.0002    4.0756 C   0  0  0  0  0  0  0  0  0  0  0  0
    1.6209   -0.0000    2.5154 S   0  0  0  0  0  0  0  0  0  0  0  0
    0.0000    0.0000    1.7384 C   0  0  0  0  0  0  0  0  0  0  0  0
    0.0000    0.0000    0.0000 S   0  0  0  0  0  0  0  0  0  0  0  0
   -1.0289   -0.0001    2.5112 N   0  0  0  0  0  0  0  0  0  0  0  0
   -0.6880   -0.0000    3.8782 C   0  0  0  0  0  0  0  0  0  0  0  0
   -1.4900   -0.0000    4.7836 O   0  0  0  0  0  0  0  0  0  0  0  0
    3.1469   -0.0021    7.4047 S   0  0  0  0  0  0  0  0  0  0  0  0
    5.7515    0.8842    8.8318 H   0  0  0  0  0  0  0  0  0  0  0  0
    5.7495   -0.8916    8.8323 H   0  0  0  0  0  0  0  0  0  0  0  0
    6.8725   -0.0052    7.7708 H   0  0  0  0  0  0  0  0  0  0  0  0
    6.0889   -0.0034    5.2939 H   0  0  0  0  0  0  0  0  0  0  0  0
    3.9016   -0.0016    3.8460 H   0  0  0  0  0  0  0  0  0  0  0  0
    0.6083   -0.0007    6.1167 H   0  0  0  0  0  0  0  0  0  0  0  0
   -2.2998   -0.0024   -0.3034 Au  0  0  0  0  0  0  0  0  0  0  0  0
  1 15  1  0  0  0  0
  1 16  1  0  0  0  0
  2 14  1  0  0  0  0
  2  1  1  0  0  0  0
  3  2  2  0  0  0  0
  4  5  2  0  0  0  0
  4  3  1  0  0  0  0
  5 14  1  0  0  0  0
  6  5  1  0  0  0  0
  6 20  1  0  0  0  0
  7  6  2  0  0  0  0
  8  7  1  0  0  0  0
  9 11  2  0  0  0  0
  9  8  1  0  0  0  0
 10  9  1  0  0  0  0
 11 12  2  0  0  0  0
 12  7  1  0  0  0  0
 12 13  2  0  0  0  0
 17  1  1  0  0  0  0
 18  3  1  0  0  0  0
 19  4  1  0  0  0  0
 21 10  1  0  0  0  0
M  END
