001-858-974.xyz
 OpenBabel07262113393D
Fc1ccc(cc1)c1nnc(n1/N=C/c1ccc(c(c1)O)O)S
 34 36  0  0  0  0  0  0  0  0999 V2000
    8.0567    0.1190   -0.8815 O   0  0  0  0  0  0  0  0  0  0  0  0
    6.8204    0.2199   -0.3595 C   0  0  0  0  0  0  0  0  0  0  0  0
    6.3700   -0.7064    0.5879 C   0  0  0  0  0  0  0  0  0  0  0  0
    5.0896   -0.5999    1.1207 C   0  0  0  0  0  0  0  0  0  0  0  0
    4.2347    0.4425    0.7191 C   0  0  0  0  0  0  0  0  0  0  0  0
    2.8925    0.5909    1.2612 C   0  0  0  0  0  0  0  0  0  0  0  0
    2.4479   -0.1877    2.1847 N   0  0  0  0  0  0  0  0  0  0  0  0
    1.1358    0.0000    2.5555 N   0  0  0  0  0  0  0  0  0  0  0  0
    0.0000   -0.0000    1.7389 C   0  0  0  0  0  0  0  0  0  0  0  0
    0.0000    0.0000    0.0000 S   0  0  0  0  0  0  0  0  0  0  0  0
   -1.0733   -0.0137    2.5112 N   0  0  0  0  0  0  0  0  0  0  0  0
   -0.6744   -0.0107    3.7986 N   0  0  0  0  0  0  0  0  0  0  0  0
    0.6552   -0.0386    3.8428 C   0  0  0  0  0  0  0  0  0  0  0  0
    1.4234   -0.0683    5.0887 C   0  0  0  0  0  0  0  0  0  0  0  0
    2.8293   -0.0697    5.1486 C   0  0  0  0  0  0  0  0  0  0  0  0
    3.4866   -0.1032    6.3787 C   0  0  0  0  0  0  0  0  0  0  0  0
    2.7358   -0.1327    7.5500 C   0  0  0  0  0  0  0  0  0  0  0  0
    3.3663   -0.1618    8.7314 F   0  0  0  0  0  0  0  0  0  0  0  0
    1.3411   -0.1306    7.5232 C   0  0  0  0  0  0  0  0  0  0  0  0
    0.6913   -0.0989    6.2947 C   0  0  0  0  0  0  0  0  0  0  0  0
    4.6873    1.3727   -0.2397 C   0  0  0  0  0  0  0  0  0  0  0  0
    5.9636    1.2648   -0.7725 C   0  0  0  0  0  0  0  0  0  0  0  0
    6.5019    2.1073   -1.7035 O   0  0  0  0  0  0  0  0  0  0  0  0
    8.1744    0.8445   -1.5156 H   0  0  0  0  0  0  0  0  0  0  0  0
    7.0469   -1.5086    0.8870 H   0  0  0  0  0  0  0  0  0  0  0  0
    4.7284   -1.3250    1.8509 H   0  0  0  0  0  0  0  0  0  0  0  0
    2.2729    1.4003    0.8513 H   0  0  0  0  0  0  0  0  0  0  0  0
    0.7511   -2.1427   -0.4725 Au  0  0  0  0  0  0  0  0  0  0  0  0
    3.4109   -0.0527    4.2293 H   0  0  0  0  0  0  0  0  0  0  0  0
    4.5761   -0.1050    6.4405 H   0  0  0  0  0  0  0  0  0  0  0  0
    0.7865   -0.1543    8.4627 H   0  0  0  0  0  0  0  0  0  0  0  0
   -0.3977   -0.0977    6.2394 H   0  0  0  0  0  0  0  0  0  0  0  0
    4.0286    2.1830   -0.5664 H   0  0  0  0  0  0  0  0  0  0  0  0
    5.8696    2.7928   -1.9532 H   0  0  0  0  0  0  0  0  0  0  0  0
  1  2  1  0  0  0  0
  2  3  1  0  0  0  0
  3 25  1  0  0  0  0
  3  4  2  0  0  0  0
  4 26  1  0  0  0  0
  5  4  1  0  0  0  0
  5  6  1  0  0  0  0
  6  7  2  0  0  0  0
  7  8  1  0  0  0  0
  8 13  1  0  0  0  0
  9 11  2  0  0  0  0
  9  8  1  0  0  0  0
 10  9  1  0  0  0  0
 11 12  1  0  0  0  0
 12 13  2  0  0  0  0
 13 14  1  0  0  0  0
 14 15  2  0  0  0  0
 14 20  1  0  0  0  0
 15 16  1  0  0  0  0
 16 30  1  0  0  0  0
 16 17  2  0  0  0  0
 17 18  1  0  0  0  0
 19 17  1  0  0  0  0
 19 31  1  0  0  0  0
 20 19  2  0  0  0  0
 21  5  2  0  0  0  0
 22  2  2  0  0  0  0
 22 21  1  0  0  0  0
 23 22  1  0  0  0  0
 24  1  1  0  0  0  0
 27  6  1  0  0  0  0
 28 10  1  0  0  0  0
 29 15  1  0  0  0  0
 32 20  1  0  0  0  0
 33 21  1  0  0  0  0
 34 23  1  0  0  0  0
M  END
