001-756-807.xyz
 OpenBabel07262113393D
Clc1ccc(c(c1)N)S
 15 15  0  0  0  0  0  0  0  0999 V2000
   -0.0534    0.2886    6.2917 Cl  0  0  0  0  0  0  0  0  0  0  0  0
   -0.0358    0.1717    4.5493 C   0  0  0  0  0  0  0  0  0  0  0  0
   -1.2530    0.1587    3.8527 C   0  0  0  0  0  0  0  0  0  0  0  0
   -1.2149    0.0629    2.4669 C   0  0  0  0  0  0  0  0  0  0  0  0
    0.0000   -0.0000    1.7630 C   0  0  0  0  0  0  0  0  0  0  0  0
    1.2304    0.0000    2.4867 C   0  0  0  0  0  0  0  0  0  0  0  0
    1.1868    0.0913    3.8931 C   0  0  0  0  0  0  0  0  0  0  0  0
    2.4186   -0.1429    1.8263 N   0  0  0  0  0  0  0  0  0  0  0  0
    0.0000    0.0000    0.0000 S   0  0  0  0  0  0  0  0  0  0  0  0
   -2.1969    0.2205    4.3937 H   0  0  0  0  0  0  0  0  0  0  0  0
   -2.1440    0.0437    1.8939 H   0  0  0  0  0  0  0  0  0  0  0  0
    2.1127    0.0955    4.4705 H   0  0  0  0  0  0  0  0  0  0  0  0
    3.2764    0.0708    2.3180 H   0  0  0  0  0  0  0  0  0  0  0  0
    2.4023    0.0325    0.8260 H   0  0  0  0  0  0  0  0  0  0  0  0
    0.6134   -2.1777   -0.5284 Au  0  0  0  0  0  0  0  0  0  0  0  0
  2  1  1  0  0  0  0
  3 10  1  0  0  0  0
  3  2  2  0  0  0  0
  4  3  1  0  0  0  0
  5  4  2  0  0  0  0
  5  6  1  0  0  0  0
  6  7  2  0  0  0  0
  7 12  1  0  0  0  0
  7  2  1  0  0  0  0
  8 13  1  0  0  0  0
  8  6  1  0  0  0  0
  9  5  1  0  0  0  0
 11  4  1  0  0  0  0
 14  8  1  0  0  0  0
 15  9  1  0  0  0  0
M  END
