001-810-289.xyz
 OpenBabel07262113393D
Clc1ccc(cc1)c1nnc(n1N=Cc1cccc2c1cccc2)S
 38 41  0  0  0  0  0  0  0  0999 V2000
    0.0000    0.0000    0.0000 S   0  0  0  0  0  0  0  0  0  0  0  0
   -0.0000   -0.0000    1.7366 C   0  0  0  0  0  0  0  0  0  0  0  0
    1.0644   -0.0000    2.5238 N   0  0  0  0  0  0  0  0  0  0  0  0
    0.6479    0.0478    3.8042 N   0  0  0  0  0  0  0  0  0  0  0  0
   -0.6833    0.0357    3.8295 C   0  0  0  0  0  0  0  0  0  0  0  0
   -1.4762    0.0795    5.0586 C   0  0  0  0  0  0  0  0  0  0  0  0
   -0.7894    0.3069    6.2686 C   0  0  0  0  0  0  0  0  0  0  0  0
   -1.4733    0.3546    7.4779 C   0  0  0  0  0  0  0  0  0  0  0  0
   -2.8608    0.1715    7.4910 C   0  0  0  0  0  0  0  0  0  0  0  0
   -3.7253    0.2370    9.0057 Cl  0  0  0  0  0  0  0  0  0  0  0  0
   -3.5601   -0.0637    6.3055 C   0  0  0  0  0  0  0  0  0  0  0  0
   -2.8694   -0.1091    5.0948 C   0  0  0  0  0  0  0  0  0  0  0  0
   -1.1402    0.0398    2.5359 N   0  0  0  0  0  0  0  0  0  0  0  0
   -2.4558   -0.0947    2.1100 N   0  0  0  0  0  0  0  0  0  0  0  0
   -2.9089    0.8376    1.3497 C   0  0  0  0  0  0  0  0  0  0  0  0
   -2.3129    2.1297    0.9717 C   0  0  0  0  0  0  0  0  0  0  0  0
   -1.6848    2.9163    1.9278 C   0  0  0  0  0  0  0  0  0  0  0  0
   -1.1919    4.1982    1.6021 C   0  0  0  0  0  0  0  0  0  0  0  0
   -1.3274    4.6873    0.3207 C   0  0  0  0  0  0  0  0  0  0  0  0
   -1.9598    3.9164   -0.6922 C   0  0  0  0  0  0  0  0  0  0  0  0
   -2.0910    4.4018   -2.0223 C   0  0  0  0  0  0  0  0  0  0  0  0
   -2.6842    3.6338   -3.0003 C   0  0  0  0  0  0  0  0  0  0  0  0
   -3.1642    2.3387   -2.6880 C   0  0  0  0  0  0  0  0  0  0  0  0
   -3.0515    1.8389   -1.4073 C   0  0  0  0  0  0  0  0  0  0  0  0
   -2.4633    2.6131   -0.3708 C   0  0  0  0  0  0  0  0  0  0  0  0
   -0.7422   -2.1413   -0.4721 Au  0  0  0  0  0  0  0  0  0  0  0  0
    0.2922    0.4420    6.2347 H   0  0  0  0  0  0  0  0  0  0  0  0
   -0.9415    0.5334    8.4134 H   0  0  0  0  0  0  0  0  0  0  0  0
   -4.6402   -0.2128    6.3343 H   0  0  0  0  0  0  0  0  0  0  0  0
   -3.4128   -0.3089    4.1724 H   0  0  0  0  0  0  0  0  0  0  0  0
   -3.9161    0.6261    0.9679 H   0  0  0  0  0  0  0  0  0  0  0  0
   -1.5892    2.5552    2.9523 H   0  0  0  0  0  0  0  0  0  0  0  0
   -0.7066    4.7975    2.3748 H   0  0  0  0  0  0  0  0  0  0  0  0
   -0.9458    5.6785    0.0636 H   0  0  0  0  0  0  0  0  0  0  0  0
   -1.7041    5.3967   -2.2563 H   0  0  0  0  0  0  0  0  0  0  0  0
   -2.7770    4.0157   -4.0193 H   0  0  0  0  0  0  0  0  0  0  0  0
   -3.6179    1.7270   -3.4712 H   0  0  0  0  0  0  0  0  0  0  0  0
   -3.3950    0.8254   -1.1960 H   0  0  0  0  0  0  0  0  0  0  0  0
  1  2  1  0  0  0  0
  2  3  2  0  0  0  0
  2 13  1  0  0  0  0
  3  4  1  0  0  0  0
  4  5  2  0  0  0  0
  5  6  1  0  0  0  0
  6 12  2  0  0  0  0
  6  7  1  0  0  0  0
  7  8  2  0  0  0  0
  8  9  1  0  0  0  0
  8 28  1  0  0  0  0
  9 10  1  0  0  0  0
 11 29  1  0  0  0  0
 11  9  2  0  0  0  0
 12 11  1  0  0  0  0
 13  5  1  0  0  0  0
 14 13  1  0  0  0  0
 15 14  2  0  0  0  0
 16 15  1  0  0  0  0
 16 17  2  0  0  0  0
 17 32  1  0  0  0  0
 18 17  1  0  0  0  0
 18 33  1  0  0  0  0
 19 18  2  0  0  0  0
 20 25  1  0  0  0  0
 20 19  1  0  0  0  0
 21 20  2  0  0  0  0
 22 23  2  0  0  0  0
 22 21  1  0  0  0  0
 23 24  1  0  0  0  0
 24 38  1  0  0  0  0
 24 25  2  0  0  0  0
 25 16  1  0  0  0  0
 26  1  1  0  0  0  0
 27  7  1  0  0  0  0
 30 12  1  0  0  0  0
 31 15  1  0  0  0  0
 34 19  1  0  0  0  0
 35 21  1  0  0  0  0
 36 22  1  0  0  0  0
 37 23  1  0  0  0  0
M  END
