001-800-492.xyz
 OpenBabel07262113393D
Cc1ccc(cc1)c1nnc(n1/N=C/c1cc(Br)cc(c1O)Br)S
 36 38  0  0  0  0  0  0  0  0999 V2000
    3.4951   -0.3075    8.9248 C   0  0  0  0  0  0  0  0  0  0  0  0
    2.7748   -0.2301    7.6039 C   0  0  0  0  0  0  0  0  0  0  0  0
    1.4477   -0.6786    7.4831 C   0  0  0  0  0  0  0  0  0  0  0  0
    0.7777   -0.6307    6.2667 C   0  0  0  0  0  0  0  0  0  0  0  0
    1.4148   -0.1282    5.1141 C   0  0  0  0  0  0  0  0  0  0  0  0
    2.7355    0.3355    5.2303 C   0  0  0  0  0  0  0  0  0  0  0  0
    3.3979    0.2797    6.4580 C   0  0  0  0  0  0  0  0  0  0  0  0
    0.6315   -0.0883    3.8753 C   0  0  0  0  0  0  0  0  0  0  0  0
   -0.6789   -0.1276    3.8223 N   0  0  0  0  0  0  0  0  0  0  0  0
   -1.0700   -0.0788    2.5172 N   0  0  0  0  0  0  0  0  0  0  0  0
    0.0000    0.0000    1.7532 C   0  0  0  0  0  0  0  0  0  0  0  0
    0.0000    0.0000    0.0000 S   0  0  0  0  0  0  0  0  0  0  0  0
    1.1302    0.0000    2.5707 N   0  0  0  0  0  0  0  0  0  0  0  0
    2.4551   -0.0677    2.2932 N   0  0  0  0  0  0  0  0  0  0  0  0
    2.9075    0.2889    1.1481 C   0  0  0  0  0  0  0  0  0  0  0  0
    4.3406    0.1748    0.8671 C   0  0  0  0  0  0  0  0  0  0  0  0
    5.2235   -0.3939    1.8004 C   0  0  0  0  0  0  0  0  0  0  0  0
    6.5822   -0.4782    1.5198 C   0  0  0  0  0  0  0  0  0  0  0  0
    7.7698   -1.2447    2.7952 Br  0  0  0  0  0  0  0  0  0  0  0  0
    7.0940   -0.0088    0.3044 C   0  0  0  0  0  0  0  0  0  0  0  0
    6.2158    0.5485   -0.6207 C   0  0  0  0  0  0  0  0  0  0  0  0
    6.8722    1.1996   -2.2922 Br  0  0  0  0  0  0  0  0  0  0  0  0
    4.8352    0.6548   -0.3671 C   0  0  0  0  0  0  0  0  0  0  0  0
    3.9684    1.1942   -1.2409 O   0  0  0  0  0  0  0  0  0  0  0  0
    4.4680    0.2038    8.8862 H   0  0  0  0  0  0  0  0  0  0  0  0
    2.9004    0.1494    9.7324 H   0  0  0  0  0  0  0  0  0  0  0  0
    3.6785   -1.3561    9.2152 H   0  0  0  0  0  0  0  0  0  0  0  0
    0.9330   -1.0758    8.3624 H   0  0  0  0  0  0  0  0  0  0  0  0
   -0.2526   -0.9786    6.1818 H   0  0  0  0  0  0  0  0  0  0  0  0
    3.2465    0.7489    4.3636 H   0  0  0  0  0  0  0  0  0  0  0  0
    4.4251    0.6482    6.5246 H   0  0  0  0  0  0  0  0  0  0  0  0
   -2.2800   -0.4345   -0.1949 Au  0  0  0  0  0  0  0  0  0  0  0  0
    2.2757    0.7008    0.3507 H   0  0  0  0  0  0  0  0  0  0  0  0
    4.8164   -0.7662    2.7403 H   0  0  0  0  0  0  0  0  0  0  0  0
    8.1582   -0.0781    0.0808 H   0  0  0  0  0  0  0  0  0  0  0  0
    4.4476    1.4728   -2.0397 H   0  0  0  0  0  0  0  0  0  0  0  0
  1 27  1  0  0  0  0
  1 26  1  0  0  0  0
  2  1  1  0  0  0  0
  3  2  1  0  0  0  0
  3 28  1  0  0  0  0
  4  3  2  0  0  0  0
  5  6  2  0  0  0  0
  5  4  1  0  0  0  0
  6  7  1  0  0  0  0
  7 31  1  0  0  0  0
  7  2  2  0  0  0  0
  8  5  1  0  0  0  0
  9  8  2  0  0  0  0
 10  9  1  0  0  0  0
 11 10  2  0  0  0  0
 11 13  1  0  0  0  0
 12 11  1  0  0  0  0
 13  8  1  0  0  0  0
 14 13  1  0  0  0  0
 15 14  2  0  0  0  0
 16 15  1  0  0  0  0
 16 17  2  0  0  0  0
 17 34  1  0  0  0  0
 18 17  1  0  0  0  0
 18 19  1  0  0  0  0
 20 18  2  0  0  0  0
 21 23  2  0  0  0  0
 21 20  1  0  0  0  0
 22 21  1  0  0  0  0
 23 16  1  0  0  0  0
 24 23  1  0  0  0  0
 25  1  1  0  0  0  0
 29  4  1  0  0  0  0
 30  6  1  0  0  0  0
 32 12  1  0  0  0  0
 33 15  1  0  0  0  0
 35 20  1  0  0  0  0
 36 24  1  0  0  0  0
M  END
