001-579-480.xyz
 OpenBabel07262113393D
CSc1ccc(cc1)/C=C/1\SC(=NC1=O)S
 25 26  0  0  0  0  0  0  0  0999 V2000
    8.0867    0.0098    6.2340 C   0  0  0  0  0  0  0  0  0  0  0  0
    6.9337    0.0057    7.6341 S   0  0  0  0  0  0  0  0  0  0  0  0
    5.3473    0.0039    6.8594 C   0  0  0  0  0  0  0  0  0  0  0  0
    4.2262    0.0016    7.7137 C   0  0  0  0  0  0  0  0  0  0  0  0
    2.9435    0.0003    7.1884 C   0  0  0  0  0  0  0  0  0  0  0  0
    2.7116    0.0010    5.7932 C   0  0  0  0  0  0  0  0  0  0  0  0
    1.3378    0.0000    5.3267 C   0  0  0  0  0  0  0  0  0  0  0  0
    0.8089   -0.0002    4.0809 C   0  0  0  0  0  0  0  0  0  0  0  0
    1.6192    0.0000    2.5149 S   0  0  0  0  0  0  0  0  0  0  0  0
   -0.0000    0.0000    1.7384 C   0  0  0  0  0  0  0  0  0  0  0  0
    0.0000    0.0000    0.0000 S   0  0  0  0  0  0  0  0  0  0  0  0
   -1.0295    0.0000    2.5105 N   0  0  0  0  0  0  0  0  0  0  0  0
   -0.6898   -0.0003    3.8769 C   0  0  0  0  0  0  0  0  0  0  0  0
   -1.4942   -0.0006    4.7797 O   0  0  0  0  0  0  0  0  0  0  0  0
    3.8430    0.0031    4.9524 C   0  0  0  0  0  0  0  0  0  0  0  0
    5.1350    0.0045    5.4698 C   0  0  0  0  0  0  0  0  0  0  0  0
    9.0911    0.0114    6.6793 H   0  0  0  0  0  0  0  0  0  0  0  0
    7.9694    0.9119    5.6160 H   0  0  0  0  0  0  0  0  0  0  0  0
    7.9733   -0.8912    5.6137 H   0  0  0  0  0  0  0  0  0  0  0  0
    4.3717    0.0010    8.7966 H   0  0  0  0  0  0  0  0  0  0  0  0
    2.0866   -0.0014    7.8664 H   0  0  0  0  0  0  0  0  0  0  0  0
    0.5669   -0.0005    6.1059 H   0  0  0  0  0  0  0  0  0  0  0  0
   -2.3000    0.0035   -0.3030 Au  0  0  0  0  0  0  0  0  0  0  0  0
    3.7251    0.0038    3.8685 H   0  0  0  0  0  0  0  0  0  0  0  0
    5.9759    0.0062    4.7772 H   0  0  0  0  0  0  0  0  0  0  0  0
  1 17  1  0  0  0  0
  1  2  1  0  0  0  0
  3  2  1  0  0  0  0
  3  4  2  0  0  0  0
  4 20  1  0  0  0  0
  5  4  1  0  0  0  0
  5 21  1  0  0  0  0
  6  5  2  0  0  0  0
  7  6  1  0  0  0  0
  7 22  1  0  0  0  0
  8  7  2  0  0  0  0
  9  8  1  0  0  0  0
 10 12  2  0  0  0  0
 10  9  1  0  0  0  0
 11 10  1  0  0  0  0
 12 13  2  0  0  0  0
 13  8  1  0  0  0  0
 13 14  2  0  0  0  0
 15 16  2  0  0  0  0
 15  6  1  0  0  0  0
 16  3  1  0  0  0  0
 18  1  1  0  0  0  0
 19  1  1  0  0  0  0
 23 11  1  0  0  0  0
 24 15  1  0  0  0  0
 25 16  1  0  0  0  0
M  END
