001-858-926.xyz
 OpenBabel07262113393D
Fc1ccc(cc1)c1nnc(n1/N=C/c1cc(Br)ccc1O)S
 33 35  0  0  0  0  0  0  0  0999 V2000
   -4.7943   -1.3361    2.7141 O   0  0  0  0  0  0  0  0  0  0  0  0
   -5.1769   -0.7864    1.5609 C   0  0  0  0  0  0  0  0  0  0  0  0
   -6.5032   -0.9715    1.1334 C   0  0  0  0  0  0  0  0  0  0  0  0
   -6.9533   -0.4124   -0.0558 C   0  0  0  0  0  0  0  0  0  0  0  0
   -6.0807    0.3465   -0.8529 C   0  0  0  0  0  0  0  0  0  0  0  0
   -6.7086    1.1048   -2.4830 Br  0  0  0  0  0  0  0  0  0  0  0  0
   -4.7668    0.5420   -0.4561 C   0  0  0  0  0  0  0  0  0  0  0  0
   -4.2944   -0.0154    0.7510 C   0  0  0  0  0  0  0  0  0  0  0  0
   -2.9159    0.2122    1.1340 C   0  0  0  0  0  0  0  0  0  0  0  0
   -2.4418   -0.2777    2.2311 N   0  0  0  0  0  0  0  0  0  0  0  0
   -1.1320   -0.0849    2.5585 N   0  0  0  0  0  0  0  0  0  0  0  0
    0.0000    0.0000    1.7542 C   0  0  0  0  0  0  0  0  0  0  0  0
    0.0000    0.0000    0.0000 S   0  0  0  0  0  0  0  0  0  0  0  0
    1.0660   -0.0000    2.5287 N   0  0  0  0  0  0  0  0  0  0  0  0
    0.6647   -0.0849    3.8282 N   0  0  0  0  0  0  0  0  0  0  0  0
   -0.6463   -0.1436    3.8653 C   0  0  0  0  0  0  0  0  0  0  0  0
   -1.4414   -0.2519    5.0920 C   0  0  0  0  0  0  0  0  0  0  0  0
   -0.7936   -0.7543    6.2387 C   0  0  0  0  0  0  0  0  0  0  0  0
   -1.4689   -0.8648    7.4496 C   0  0  0  0  0  0  0  0  0  0  0  0
   -2.8052   -0.4713    7.5166 C   0  0  0  0  0  0  0  0  0  0  0  0
   -3.4615   -0.5837    8.6781 F   0  0  0  0  0  0  0  0  0  0  0  0
   -3.4705    0.0377    6.4055 C   0  0  0  0  0  0  0  0  0  0  0  0
   -2.7846    0.1522    5.1961 C   0  0  0  0  0  0  0  0  0  0  0  0
   -3.8317   -1.1499    2.8474 H   0  0  0  0  0  0  0  0  0  0  0  0
   -7.1678   -1.5650    1.7633 H   0  0  0  0  0  0  0  0  0  0  0  0
   -7.9860   -0.5628   -0.3743 H   0  0  0  0  0  0  0  0  0  0  0  0
   -4.0855    1.1284   -1.0754 H   0  0  0  0  0  0  0  0  0  0  0  0
   -2.2980    0.8253    0.4623 H   0  0  0  0  0  0  0  0  0  0  0  0
    2.2946   -0.3275   -0.2049 Au  0  0  0  0  0  0  0  0  0  0  0  0
    0.2520   -1.0529    6.1575 H   0  0  0  0  0  0  0  0  0  0  0  0
   -0.9797   -1.2562    8.3430 H   0  0  0  0  0  0  0  0  0  0  0  0
   -4.5138    0.3436    6.4969 H   0  0  0  0  0  0  0  0  0  0  0  0
   -3.3066    0.5653    4.3357 H   0  0  0  0  0  0  0  0  0  0  0  0
  1 24  1  0  0  0  0
  2  1  1  0  0  0  0
  3  2  1  0  0  0  0
  3 25  1  0  0  0  0
  4  3  2  0  0  0  0
  5  7  2  0  0  0  0
  5  4  1  0  0  0  0
  6  5  1  0  0  0  0
  7  8  1  0  0  0  0
  8  9  1  0  0  0  0
  8  2  2  0  0  0  0
  9 10  2  0  0  0  0
 10 11  1  0  0  0  0
 11 16  1  0  0  0  0
 12 14  2  0  0  0  0
 12 11  1  0  0  0  0
 13 12  1  0  0  0  0
 14 15  1  0  0  0  0
 15 16  2  0  0  0  0
 16 17  1  0  0  0  0
 17 23  2  0  0  0  0
 17 18  1  0  0  0  0
 18 19  2  0  0  0  0
 19 20  1  0  0  0  0
 19 31  1  0  0  0  0
 20 21  1  0  0  0  0
 22 32  1  0  0  0  0
 22 20  2  0  0  0  0
 23 22  1  0  0  0  0
 26  4  1  0  0  0  0
 27  7  1  0  0  0  0
 28  9  1  0  0  0  0
 29 13  1  0  0  0  0
 30 18  1  0  0  0  0
 33 23  1  0  0  0  0
M  END
