001-576-669.xyz
 OpenBabel07262113393D
Cn1ncc(c1C)Cn1c(S)nc2c(c1=O)cc(s2)c1ccccc1
 41 44  0  0  1  0  0  0  0  0999 V2000
   -2.8888    1.3047   -1.4294 C   0  0  0  0  0  0  0  0  0  0  0  0
   -3.0602    1.9098   -0.0765 C   0  0  0  0  0  0  0  0  0  0  0  0
   -2.9165    1.3883    1.2081 C   0  0  0  0  0  0  0  0  0  0  0  0
   -2.4934    0.0130    1.6188 C   0  0  0  0  0  0  0  0  0  0  0  0
   -1.2294    0.0029    2.3889 N   0  0  0  0  0  0  0  0  0  0  0  0
   -0.0000   -0.0000    1.7751 C   0  0  0  0  0  0  0  0  0  0  0  0
    0.0000    0.0000    0.0000 S   0  0  0  0  0  0  0  0  0  0  0  0
    1.1379   -0.0000    2.4253 N   0  0  0  0  0  0  0  0  0  0  0  0
    1.0606    0.0196    3.7716 C   0  0  0  0  0  0  0  0  0  0  0  0
    2.4610    0.0200    4.8099 S   0  0  0  0  0  0  0  0  0  0  0  0
    1.4417    0.0616    6.2563 C   0  0  0  0  0  0  0  0  0  0  0  0
    0.1070    0.0823    5.9232 C   0  0  0  0  0  0  0  0  0  0  0  0
   -0.1176    0.0564    4.5164 C   0  0  1  0  0  0  0  0  0  0  0  0
   -1.3797    0.0690    3.8133 C   0  0  0  0  0  0  0  0  0  0  0  0
   -2.4905    0.1283    4.3134 O   0  0  0  0  0  0  0  0  0  0  0  0
    2.0488    0.0768    7.5907 C   0  0  0  0  0  0  0  0  0  0  0  0
    1.3055    0.5134    8.7057 C   0  0  0  0  0  0  0  0  0  0  0  0
    1.8673    0.5182    9.9808 C   0  0  0  0  0  0  0  0  0  0  0  0
    3.1875    0.0983   10.1747 C   0  0  0  0  0  0  0  0  0  0  0  0
    3.9390   -0.3294    9.0771 C   0  0  0  0  0  0  0  0  0  0  0  0
    3.3763   -0.3429    7.8010 C   0  0  0  0  0  0  0  0  0  0  0  0
   -3.2501    2.4669    2.0712 C   0  0  0  0  0  0  0  0  0  0  0  0
   -3.5636    3.5585    1.3866 N   0  0  0  0  0  0  0  0  0  0  0  0
   -3.4475    3.2092    0.0905 N   0  0  0  0  0  0  0  0  0  0  0  0
   -3.7350    4.1741   -0.9461 C   0  0  0  0  0  0  0  0  0  0  0  0
   -2.6744    0.2315   -1.3506 H   0  0  0  0  0  0  0  0  0  0  0  0
   -2.0511    1.7666   -1.9781 H   0  0  0  0  0  0  0  0  0  0  0  0
   -3.7967    1.4238   -2.0439 H   0  0  0  0  0  0  0  0  0  0  0  0
   -3.2376   -0.4312    2.2908 H   0  0  0  0  0  0  0  0  0  0  0  0
   -2.3667   -0.6475    0.7507 H   0  0  0  0  0  0  0  0  0  0  0  0
    2.2874   -0.1513   -0.3203 Au  0  0  0  0  0  0  0  0  0  0  0  0
   -0.7051    0.0928    6.6487 H   0  0  0  0  0  0  0  0  0  0  0  0
    0.2831    0.8687    8.5662 H   0  0  0  0  0  0  0  0  0  0  0  0
    1.2724    0.8629   10.8300 H   0  0  0  0  0  0  0  0  0  0  0  0
    3.6275    0.1075   11.1745 H   0  0  0  0  0  0  0  0  0  0  0  0
    4.9707   -0.6618    9.2149 H   0  0  0  0  0  0  0  0  0  0  0  0
    3.9705   -0.6989    6.9561 H   0  0  0  0  0  0  0  0  0  0  0  0
   -3.2695    2.4623    3.1601 H   0  0  0  0  0  0  0  0  0  0  0  0
   -2.8668    4.3155   -1.6091 H   0  0  0  0  0  0  0  0  0  0  0  0
   -3.9700    5.1225   -0.4495 H   0  0  0  0  0  0  0  0  0  0  0  0
   -4.5978    3.8616   -1.5567 H   0  0  0  0  0  0  0  0  0  0  0  0
  1 26  1  0  0  0  0
  1  2  1  0  0  0  0
  2 24  1  0  0  0  0
  2  3  2  0  0  0  0
  3  4  1  0  0  0  0
  3 22  1  0  0  0  0
  4 29  1  0  0  0  0
  4  5  1  0  0  0  0
  5 14  1  0  0  0  0
  6  5  1  0  0  0  0
  6  8  2  0  0  0  0
  7  6  1  0  0  0  0
  8  9  2  0  0  0  0
  9 10  1  0  0  0  0
 10 11  1  0  0  0  0
 11 16  1  0  0  0  0
 12 11  2  0  0  0  0
 12 32  1  0  0  0  0
 13  9  1  6  0  0  0
 13 12  1  0  0  0  0
 14 15  2  0  0  0  0
 14 13  1  0  0  0  0
 16 21  2  0  0  0  0
 16 17  1  0  0  0  0
 17 18  2  0  0  0  0
 18 19  1  0  0  0  0
 18 34  1  0  0  0  0
 19 35  1  0  0  0  0
 20 36  1  0  0  0  0
 20 19  2  0  0  0  0
 21 20  1  0  0  0  0
 22 38  1  0  0  0  0
 23 22  2  0  0  0  0
 24 23  1  0  0  0  0
 25 40  1  0  0  0  0
 25 24  1  0  0  0  0
 27  1  1  0  0  0  0
 28  1  1  0  0  0  0
 30  4  1  0  0  0  0
 31  7  1  0  0  0  0
 33 17  1  0  0  0  0
 37 21  1  0  0  0  0
 39 25  1  0  0  0  0
 41 25  1  0  0  0  0
M  RAD  1  13   2
M  END
