001-577-270.xyz
 OpenBabel07262113393D
Oc1ccc(cc1/C=C/1\SC(=NC1=O)S)Cl
 22 23  0  0  0  0  0  0  0  0999 V2000
    2.0558   -0.8510    7.9746 O   0  0  0  0  0  0  0  0  0  0  0  0
    3.0032   -0.4252    7.1108 C   0  0  0  0  0  0  0  0  0  0  0  0
    4.3211   -0.3905    7.5862 C   0  0  0  0  0  0  0  0  0  0  0  0
    5.3645    0.0135    6.7620 C   0  0  0  0  0  0  0  0  0  0  0  0
    5.0925    0.3913    5.4401 C   0  0  0  0  0  0  0  0  0  0  0  0
    6.3996    0.9066    4.4002 Cl  0  0  0  0  0  0  0  0  0  0  0  0
    3.7926    0.3693    4.9539 C   0  0  0  0  0  0  0  0  0  0  0  0
    2.7168   -0.0324    5.7751 C   0  0  0  0  0  0  0  0  0  0  0  0
    1.3388   -0.0276    5.3172 C   0  0  0  0  0  0  0  0  0  0  0  0
    0.8143    0.0028    4.0718 C   0  0  0  0  0  0  0  0  0  0  0  0
    1.6241    0.0000    2.5091 S   0  0  0  0  0  0  0  0  0  0  0  0
    0.0000   -0.0000    1.7349 C   0  0  0  0  0  0  0  0  0  0  0  0
    0.0000    0.0000    0.0000 S   0  0  0  0  0  0  0  0  0  0  0  0
   -1.0295    0.0020    2.5095 N   0  0  0  0  0  0  0  0  0  0  0  0
   -0.6880    0.0051    3.8709 C   0  0  0  0  0  0  0  0  0  0  0  0
   -1.4835    0.0009    4.7818 O   0  0  0  0  0  0  0  0  0  0  0  0
    1.2078   -0.9610    7.5247 H   0  0  0  0  0  0  0  0  0  0  0  0
    4.5052   -0.6993    8.6164 H   0  0  0  0  0  0  0  0  0  0  0  0
    6.3900    0.0360    7.1329 H   0  0  0  0  0  0  0  0  0  0  0  0
    3.6091    0.7036    3.9335 H   0  0  0  0  0  0  0  0  0  0  0  0
    0.5450   -0.0371    6.0757 H   0  0  0  0  0  0  0  0  0  0  0  0
   -2.2986    0.0093   -0.3142 Au  0  0  0  0  0  0  0  0  0  0  0  0
  2  3  1  0  0  0  0
  2  1  1  0  0  0  0
  3 18  1  0  0  0  0
  4 19  1  0  0  0  0
  4  3  2  0  0  0  0
  5  4  1  0  0  0  0
  6  5  1  0  0  0  0
  7  5  2  0  0  0  0
  7  8  1  0  0  0  0
  8  2  2  0  0  0  0
  9  8  1  0  0  0  0
  9 21  1  0  0  0  0
 10  9  2  0  0  0  0
 11 10  1  0  0  0  0
 12 11  1  0  0  0  0
 12 14  2  0  0  0  0
 13 12  1  0  0  0  0
 14 15  2  0  0  0  0
 15 10  1  0  0  0  0
 15 16  2  0  0  0  0
 17  1  1  0  0  0  0
 20  7  1  0  0  0  0
 22 13  1  0  0  0  0
M  END
