001-810-636.xyz
 OpenBabel07262113393D
Clc1ccc(cc1)C=Nn1c(S)nnc1c1ccc(cc1)Cl
 32 34  0  0  0  0  0  0  0  0999 V2000
    0.0000    0.0000    0.0000 S   0  0  0  0  0  0  0  0  0  0  0  0
    0.0000    0.0000    1.7538 C   0  0  0  0  0  0  0  0  0  0  0  0
    1.0737   -0.0000    2.5184 N   0  0  0  0  0  0  0  0  0  0  0  0
    0.6862    0.0921    3.8199 N   0  0  0  0  0  0  0  0  0  0  0  0
   -0.6243    0.1590    3.8708 C   0  0  0  0  0  0  0  0  0  0  0  0
   -1.3956    0.2643    5.1131 C   0  0  0  0  0  0  0  0  0  0  0  0
   -0.6930    0.6437    6.2747 C   0  0  0  0  0  0  0  0  0  0  0  0
   -1.3395    0.7472    7.5013 C   0  0  0  0  0  0  0  0  0  0  0  0
   -2.7081    0.4688    7.5823 C   0  0  0  0  0  0  0  0  0  0  0  0
   -3.5280    0.6020    9.1181 Cl  0  0  0  0  0  0  0  0  0  0  0  0
   -3.4231    0.0827    6.4474 C   0  0  0  0  0  0  0  0  0  0  0  0
   -2.7686   -0.0202    5.2198 C   0  0  0  0  0  0  0  0  0  0  0  0
   -1.1263    0.0966    2.5684 N   0  0  0  0  0  0  0  0  0  0  0  0
   -2.4423    0.2700    2.2744 N   0  0  0  0  0  0  0  0  0  0  0  0
   -2.9110   -0.1417    1.1541 C   0  0  0  0  0  0  0  0  0  0  0  0
   -4.3148    0.0695    0.8036 C   0  0  0  0  0  0  0  0  0  0  0  0
   -5.1841    0.8008    1.6362 C   0  0  0  0  0  0  0  0  0  0  0  0
   -6.5180    0.9739    1.2871 C   0  0  0  0  0  0  0  0  0  0  0  0
   -6.9952    0.4185    0.0917 C   0  0  0  0  0  0  0  0  0  0  0  0
   -8.6665    0.6384   -0.3478 Cl  0  0  0  0  0  0  0  0  0  0  0  0
   -6.1488   -0.3042   -0.7533 C   0  0  0  0  0  0  0  0  0  0  0  0
   -4.8131   -0.4733   -0.3927 C   0  0  0  0  0  0  0  0  0  0  0  0
    2.2985    0.3127   -0.2027 Au  0  0  0  0  0  0  0  0  0  0  0  0
    0.3740    0.8538    6.1927 H   0  0  0  0  0  0  0  0  0  0  0  0
   -0.7926    1.0450    8.3969 H   0  0  0  0  0  0  0  0  0  0  0  0
   -4.4876   -0.1413    6.5282 H   0  0  0  0  0  0  0  0  0  0  0  0
   -3.3312   -0.3273    4.3413 H   0  0  0  0  0  0  0  0  0  0  0  0
   -2.2939   -0.6844    0.4220 H   0  0  0  0  0  0  0  0  0  0  0  0
   -4.7926    1.2348    2.5576 H   0  0  0  0  0  0  0  0  0  0  0  0
   -7.1962    1.5396    1.9272 H   0  0  0  0  0  0  0  0  0  0  0  0
   -6.5384   -0.7256   -1.6806 H   0  0  0  0  0  0  0  0  0  0  0  0
   -4.1457   -1.0373   -1.0492 H   0  0  0  0  0  0  0  0  0  0  0  0
  1  2  1  0  0  0  0
  2  3  2  0  0  0  0
  2 13  1  0  0  0  0
  3  4  1  0  0  0  0
  4  5  2  0  0  0  0
  5  6  1  0  0  0  0
  6 12  2  0  0  0  0
  6  7  1  0  0  0  0
  7  8  2  0  0  0  0
  8  9  1  0  0  0  0
  8 25  1  0  0  0  0
  9 10  1  0  0  0  0
 11 26  1  0  0  0  0
 11  9  2  0  0  0  0
 12 11  1  0  0  0  0
 13  5  1  0  0  0  0
 14 13  1  0  0  0  0
 15 14  2  0  0  0  0
 16 15  1  0  0  0  0
 16 17  2  0  0  0  0
 17 29  1  0  0  0  0
 18 17  1  0  0  0  0
 18 30  1  0  0  0  0
 19 18  2  0  0  0  0
 20 19  1  0  0  0  0
 21 22  2  0  0  0  0
 21 19  1  0  0  0  0
 22 16  1  0  0  0  0
 23  1  1  0  0  0  0
 24  7  1  0  0  0  0
 27 12  1  0  0  0  0
 28 15  1  0  0  0  0
 31 21  1  0  0  0  0
 32 22  1  0  0  0  0
M  END
