001-858-916.xyz
 OpenBabel07262113393D
Fc1ccc(cc1)c1nnc(n1/N=C/c1c2ccccc2cc2c1cccc2)S
 44 48  0  0  0  0  0  0  0  0999 V2000
   -3.3106   -0.1035    8.7462 F   0  0  0  0  0  0  0  0  0  0  0  0
   -2.6743   -0.0623    7.5685 C   0  0  0  0  0  0  0  0  0  0  0  0
   -1.3346   -0.4453    7.5058 C   0  0  0  0  0  0  0  0  0  0  0  0
   -0.6801   -0.4091    6.2787 C   0  0  0  0  0  0  0  0  0  0  0  0
   -1.3551    0.0056    5.1130 C   0  0  0  0  0  0  0  0  0  0  0  0
   -2.7001    0.4046    5.2125 C   0  0  0  0  0  0  0  0  0  0  0  0
   -3.3644    0.3669    6.4381 C   0  0  0  0  0  0  0  0  0  0  0  0
   -0.5992    0.0239    3.8607 C   0  0  0  0  0  0  0  0  0  0  0  0
    0.7249    0.0416    3.7883 N   0  0  0  0  0  0  0  0  0  0  0  0
    1.0906    0.0000    2.4870 N   0  0  0  0  0  0  0  0  0  0  0  0
   -0.0000    0.0000    1.7420 C   0  0  0  0  0  0  0  0  0  0  0  0
    0.0000    0.0000    0.0000 S   0  0  0  0  0  0  0  0  0  0  0  0
   -1.1187    0.0300    2.5857 N   0  0  0  0  0  0  0  0  0  0  0  0
   -2.4351   -0.2539    2.2941 N   0  0  0  0  0  0  0  0  0  0  0  0
   -2.9382    0.3673    1.2815 C   0  0  0  0  0  0  0  0  0  0  0  0
   -4.2870    0.1744    0.7571 C   0  0  0  0  0  0  0  0  0  0  0  0
   -5.3449   -0.4331    1.5021 C   0  0  0  0  0  0  0  0  0  0  0  0
   -5.1750   -1.0195    2.7961 C   0  0  0  0  0  0  0  0  0  0  0  0
   -6.2393   -1.5562    3.4831 C   0  0  0  0  0  0  0  0  0  0  0  0
   -7.5496   -1.5539    2.9324 C   0  0  0  0  0  0  0  0  0  0  0  0
   -7.7573   -1.0151    1.6890 C   0  0  0  0  0  0  0  0  0  0  0  0
   -6.6775   -0.4495    0.9413 C   0  0  0  0  0  0  0  0  0  0  0  0
   -6.9045    0.0934   -0.3285 C   0  0  0  0  0  0  0  0  0  0  0  0
   -5.8720    0.6375   -1.0984 C   0  0  0  0  0  0  0  0  0  0  0  0
   -6.1290    1.1479   -2.4100 C   0  0  0  0  0  0  0  0  0  0  0  0
   -5.1160    1.6529   -3.1820 C   0  0  0  0  0  0  0  0  0  0  0  0
   -3.7865    1.6592   -2.6758 C   0  0  0  0  0  0  0  0  0  0  0  0
   -3.5024    1.1873   -1.4165 C   0  0  0  0  0  0  0  0  0  0  0  0
   -4.5319    0.6740   -0.5609 C   0  0  0  0  0  0  0  0  0  0  0  0
   -0.8266   -0.7694    8.4156 H   0  0  0  0  0  0  0  0  0  0  0  0
    0.3676   -0.7007    6.1974 H   0  0  0  0  0  0  0  0  0  0  0  0
   -3.2338    0.7575    4.3329 H   0  0  0  0  0  0  0  0  0  0  0  0
   -4.4079    0.6732    6.5282 H   0  0  0  0  0  0  0  0  0  0  0  0
   -1.0928   -1.9881   -0.4947 Au  0  0  0  0  0  0  0  0  0  0  0  0
   -2.3284    1.1122    0.7647 H   0  0  0  0  0  0  0  0  0  0  0  0
   -4.1791   -1.0566    3.2254 H   0  0  0  0  0  0  0  0  0  0  0  0
   -6.0696   -1.9978    4.4681 H   0  0  0  0  0  0  0  0  0  0  0  0
   -8.3800   -1.9843    3.4965 H   0  0  0  0  0  0  0  0  0  0  0  0
   -8.7544   -1.0079    1.2419 H   0  0  0  0  0  0  0  0  0  0  0  0
   -7.9191    0.0812   -0.7357 H   0  0  0  0  0  0  0  0  0  0  0  0
   -7.1551    1.1164   -2.7843 H   0  0  0  0  0  0  0  0  0  0  0  0
   -5.3190    2.0369   -4.1840 H   0  0  0  0  0  0  0  0  0  0  0  0
   -2.9741    2.0359   -3.3016 H   0  0  0  0  0  0  0  0  0  0  0  0
   -2.4623    1.1778   -1.0939 H   0  0  0  0  0  0  0  0  0  0  0  0
  2  1  1  0  0  0  0
  3  2  1  0  0  0  0
  3 30  1  0  0  0  0
  4  3  2  0  0  0  0
  5  6  2  0  0  0  0
  5  4  1  0  0  0  0
  6  7  1  0  0  0  0
  7 33  1  0  0  0  0
  7  2  2  0  0  0  0
  8  5  1  0  0  0  0
  9  8  2  0  0  0  0
 10  9  1  0  0  0  0
 11 10  2  0  0  0  0
 11 13  1  0  0  0  0
 12 11  1  0  0  0  0
 13  8  1  0  0  0  0
 14 13  1  0  0  0  0
 15 14  2  0  0  0  0
 16 15  1  0  0  0  0
 16 17  2  0  0  0  0
 17 18  1  0  0  0  0
 18 36  1  0  0  0  0
 18 19  2  0  0  0  0
 19 37  1  0  0  0  0
 20 19  1  0  0  0  0
 20 38  1  0  0  0  0
 21 20  2  0  0  0  0
 22 17  1  0  0  0  0
 22 21  1  0  0  0  0
 23 22  2  0  0  0  0
 24 29  1  0  0  0  0
 24 23  1  0  0  0  0
 25 24  2  0  0  0  0
 26 27  2  0  0  0  0
 26 25  1  0  0  0  0
 27 28  1  0  0  0  0
 28 44  1  0  0  0  0
 28 29  2  0  0  0  0
 29 16  1  0  0  0  0
 31  4  1  0  0  0  0
 32  6  1  0  0  0  0
 34 12  1  0  0  0  0
 35 15  1  0  0  0  0
 39 21  1  0  0  0  0
 40 23  1  0  0  0  0
 41 25  1  0  0  0  0
 42 26  1  0  0  0  0
 43 27  1  0  0  0  0
M  END
