001-858-975.xyz
 OpenBabel07262113393D
Fc1ccc(cc1)c1nnc(n1/N=C/c1cc(Br)cc(c1O)Br)S
 33 35  0  0  0  0  0  0  0  0999 V2000
    4.8649   -0.9355    2.7961 O   0  0  0  0  0  0  0  0  0  0  0  0
    5.2260   -0.4053    1.6333 C   0  0  0  0  0  0  0  0  0  0  0  0
    6.5730   -0.4876    1.2178 C   0  0  0  0  0  0  0  0  0  0  0  0
    7.8243   -1.3600    2.3432 Br  0  0  0  0  0  0  0  0  0  0  0  0
    6.9940    0.0597    0.0095 C   0  0  0  0  0  0  0  0  0  0  0  0
    6.0696    0.7062   -0.8233 C   0  0  0  0  0  0  0  0  0  0  0  0
    6.6557    1.4476   -2.4754 Br  0  0  0  0  0  0  0  0  0  0  0  0
    4.7380    0.8062   -0.4491 C   0  0  0  0  0  0  0  0  0  0  0  0
    4.3029    0.2584    0.7743 C   0  0  0  0  0  0  0  0  0  0  0  0
    2.9029    0.3877    1.1337 C   0  0  0  0  0  0  0  0  0  0  0  0
    2.4552   -0.0969    2.2429 N   0  0  0  0  0  0  0  0  0  0  0  0
    1.1345    0.0000    2.5606 N   0  0  0  0  0  0  0  0  0  0  0  0
   -0.0000    0.0000    1.7538 C   0  0  0  0  0  0  0  0  0  0  0  0
    0.0000    0.0000    0.0000 S   0  0  0  0  0  0  0  0  0  0  0  0
   -1.0634   -0.0780    2.5270 N   0  0  0  0  0  0  0  0  0  0  0  0
   -0.6594   -0.1310    3.8284 N   0  0  0  0  0  0  0  0  0  0  0  0
    0.6513   -0.0924    3.8677 C   0  0  0  0  0  0  0  0  0  0  0  0
    1.4549   -0.1434    5.0923 C   0  0  0  0  0  0  0  0  0  0  0  0
    0.8672   -0.7353    6.2283 C   0  0  0  0  0  0  0  0  0  0  0  0
    1.5554   -0.8003    7.4353 C   0  0  0  0  0  0  0  0  0  0  0  0
    2.8436   -0.2709    7.5083 C   0  0  0  0  0  0  0  0  0  0  0  0
    3.5127   -0.3398    8.6653 F   0  0  0  0  0  0  0  0  0  0  0  0
    3.4477    0.3299    6.4079 C   0  0  0  0  0  0  0  0  0  0  0  0
    2.7480    0.3987    5.2032 C   0  0  0  0  0  0  0  0  0  0  0  0
    3.8862   -0.8191    2.9045 H   0  0  0  0  0  0  0  0  0  0  0  0
    8.0411   -0.0184   -0.2827 H   0  0  0  0  0  0  0  0  0  0  0  0
    4.0176    1.3075   -1.0975 H   0  0  0  0  0  0  0  0  0  0  0  0
    2.2495    0.9235    0.4308 H   0  0  0  0  0  0  0  0  0  0  0  0
   -2.2725   -0.4618   -0.2022 Au  0  0  0  0  0  0  0  0  0  0  0  0
   -0.1415   -1.1407    6.1426 H   0  0  0  0  0  0  0  0  0  0  0  0
    1.1138   -1.2602    8.3209 H   0  0  0  0  0  0  0  0  0  0  0  0
    4.4537    0.7411    6.5039 H   0  0  0  0  0  0  0  0  0  0  0  0
    3.2185    0.8872    4.3523 H   0  0  0  0  0  0  0  0  0  0  0  0
  1 25  1  0  0  0  0
  2  1  1  0  0  0  0
  3  2  1  0  0  0  0
  3  4  1  0  0  0  0
  5  3  2  0  0  0  0
  6  8  2  0  0  0  0
  6  5  1  0  0  0  0
  7  6  1  0  0  0  0
  8  9  1  0  0  0  0
  9 10  1  0  0  0  0
  9  2  2  0  0  0  0
 10 11  2  0  0  0  0
 11 12  1  0  0  0  0
 12 17  1  0  0  0  0
 13 15  2  0  0  0  0
 13 12  1  0  0  0  0
 14 13  1  0  0  0  0
 15 16  1  0  0  0  0
 16 17  2  0  0  0  0
 17 18  1  0  0  0  0
 18 24  2  0  0  0  0
 18 19  1  0  0  0  0
 19 20  2  0  0  0  0
 20 21  1  0  0  0  0
 20 31  1  0  0  0  0
 21 22  1  0  0  0  0
 23 32  1  0  0  0  0
 23 21  2  0  0  0  0
 24 23  1  0  0  0  0
 26  5  1  0  0  0  0
 27  8  1  0  0  0  0
 28 10  1  0  0  0  0
 29 14  1  0  0  0  0
 30 19  1  0  0  0  0
 33 24  1  0  0  0  0
M  END
