001-574-968.xyz
 OpenBabel07262113393D
CCCn1c(S)nc2c(c1=O)cc(s2)C
 27 28  0  0  1  0  0  0  0  0999 V2000
    4.2455    1.4201    0.4724 C   0  0  0  0  0  0  0  0  0  0  0  0
    2.9590    1.4323    1.2940 C   0  0  0  0  0  0  0  0  0  0  0  0
    2.4822    0.0167    1.6197 C   0  0  0  0  0  0  0  0  0  0  0  0
    1.2320    0.0000    2.3906 N   0  0  0  0  0  0  0  0  0  0  0  0
   -0.0000   -0.0000    1.7794 C   0  0  0  0  0  0  0  0  0  0  0  0
    0.0000    0.0000    0.0000 S   0  0  0  0  0  0  0  0  0  0  0  0
   -1.1344    0.0037    2.4324 N   0  0  0  0  0  0  0  0  0  0  0  0
   -1.0509    0.0165    3.7804 C   0  0  0  0  0  0  0  0  0  0  0  0
   -2.4497    0.0219    4.8267 S   0  0  0  0  0  0  0  0  0  0  0  0
   -1.4268    0.0497    6.2649 C   0  0  0  0  0  0  0  0  0  0  0  0
   -2.0490    0.0630    7.6250 C   0  0  0  0  0  0  0  0  0  0  0  0
   -0.0987    0.0556    5.9354 C   0  0  0  0  0  0  0  0  0  0  0  0
    0.1272    0.0351    4.5226 C   0  0  2  0  0  0  0  0  0  0  0  0
    1.3878    0.0406    3.8177 C   0  0  0  0  0  0  0  0  0  0  0  0
    2.5023    0.0743    4.3103 O   0  0  0  0  0  0  0  0  0  0  0  0
    4.5884    2.4432    0.2549 H   0  0  0  0  0  0  0  0  0  0  0  0
    5.0577    0.9022    1.0085 H   0  0  0  0  0  0  0  0  0  0  0  0
    4.0999    0.9049   -0.4918 H   0  0  0  0  0  0  0  0  0  0  0  0
    2.1637    1.9641    0.7460 H   0  0  0  0  0  0  0  0  0  0  0  0
    3.1169    1.9684    2.2435 H   0  0  0  0  0  0  0  0  0  0  0  0
    2.3293   -0.5722    0.7031 H   0  0  0  0  0  0  0  0  0  0  0  0
    3.2313   -0.4945    2.2378 H   0  0  0  0  0  0  0  0  0  0  0  0
   -2.2914   -0.0387   -0.3223 Au  0  0  0  0  0  0  0  0  0  0  0  0
   -1.2625    0.0813    8.3934 H   0  0  0  0  0  0  0  0  0  0  0  0
   -2.6910    0.9473    7.7738 H   0  0  0  0  0  0  0  0  0  0  0  0
   -2.6740   -0.8288    7.7989 H   0  0  0  0  0  0  0  0  0  0  0  0
    0.7083    0.0728    6.6681 H   0  0  0  0  0  0  0  0  0  0  0  0
  1 17  1  0  0  0  0
  1  2  1  0  0  0  0
  2  3  1  0  0  0  0
  2 20  1  0  0  0  0
  3 22  1  0  0  0  0
  3  4  1  0  0  0  0
  4 14  1  0  0  0  0
  5  4  1  0  0  0  0
  5  7  2  0  0  0  0
  6  5  1  0  0  0  0
  7  8  2  0  0  0  0
  8  9  1  0  0  0  0
  9 10  1  0  0  0  0
 10 11  1  0  0  0  0
 11 25  1  0  0  0  0
 11 26  1  0  0  0  0
 11 24  1  0  0  0  0
 12 10  2  0  0  0  0
 12 27  1  0  0  0  0
 13  8  1  6  0  0  0
 13 12  1  0  0  0  0
 14 15  2  0  0  0  0
 14 13  1  0  0  0  0
 16  1  1  0  0  0  0
 18  1  1  0  0  0  0
 19  2  1  0  0  0  0
 21  3  1  0  0  0  0
 23  6  1  0  0  0  0
M  RAD  1  13   2
M  END
