001-579-585.xyz
 OpenBabel07262113393D
O=C1N=C(S/C/1=C\c1ccc(cc1)O)S
 22 23  0  0  0  0  0  0  0  0999 V2000
    6.6030    0.0017    7.3215 O   0  0  0  0  0  0  0  0  0  0  0  0
    5.3297    0.0014    6.8673 C   0  0  0  0  0  0  0  0  0  0  0  0
    5.1305    0.0006    5.4767 C   0  0  0  0  0  0  0  0  0  0  0  0
    3.8445    0.0003    4.9562 C   0  0  0  0  0  0  0  0  0  0  0  0
    2.7078    0.0009    5.7972 C   0  0  0  0  0  0  0  0  0  0  0  0
    1.3352    0.0007    5.3271 C   0  0  0  0  0  0  0  0  0  0  0  0
    0.8071    0.0003    4.0813 C   0  0  0  0  0  0  0  0  0  0  0  0
    1.6183    0.0000    2.5150 S   0  0  0  0  0  0  0  0  0  0  0  0
    0.0000    0.0000    1.7387 C   0  0  0  0  0  0  0  0  0  0  0  0
    0.0000    0.0000    0.0000 S   0  0  0  0  0  0  0  0  0  0  0  0
   -1.0301    0.0001    2.5103 N   0  0  0  0  0  0  0  0  0  0  0  0
   -0.6910    0.0003    3.8769 C   0  0  0  0  0  0  0  0  0  0  0  0
   -1.4963    0.0004    4.7793 O   0  0  0  0  0  0  0  0  0  0  0  0
    2.9334    0.0017    7.1904 C   0  0  0  0  0  0  0  0  0  0  0  0
    4.2176    0.0020    7.7228 C   0  0  0  0  0  0  0  0  0  0  0  0
    6.6049    0.0021    8.2880 H   0  0  0  0  0  0  0  0  0  0  0  0
    6.0045    0.0001    4.8233 H   0  0  0  0  0  0  0  0  0  0  0  0
    3.7269   -0.0004    3.8723 H   0  0  0  0  0  0  0  0  0  0  0  0
    0.5626    0.0009    6.1048 H   0  0  0  0  0  0  0  0  0  0  0  0
   -2.2997    0.0013   -0.3036 Au  0  0  0  0  0  0  0  0  0  0  0  0
    2.0744    0.0021    7.8657 H   0  0  0  0  0  0  0  0  0  0  0  0
    4.3638    0.0026    8.8071 H   0  0  0  0  0  0  0  0  0  0  0  0
  1 16  1  0  0  0  0
  2  1  1  0  0  0  0
  2 15  2  0  0  0  0
  3  2  1  0  0  0  0
  4  3  2  0  0  0  0
  4  5  1  0  0  0  0
  5 14  2  0  0  0  0
  6  5  1  0  0  0  0
  6 19  1  0  0  0  0
  7  6  2  0  0  0  0
  8  7  1  0  0  0  0
  9 11  2  0  0  0  0
  9  8  1  0  0  0  0
 10  9  1  0  0  0  0
 11 12  2  0  0  0  0
 12  7  1  0  0  0  0
 12 13  2  0  0  0  0
 14 15  1  0  0  0  0
 14 21  1  0  0  0  0
 15 22  1  0  0  0  0
 17  3  1  0  0  0  0
 18  4  1  0  0  0  0
 20 10  1  0  0  0  0
M  END
