001-581-697.xyz
 OpenBabel07262113393D
FC(Oc1ccc(cc1)/C=C/1\SC(=NC1=O)S)F
 25 26  0  0  0  0  0  0  0  0999 V2000
    6.6485   -0.3928    9.4878 F   0  0  0  0  0  0  0  0  0  0  0  0
    6.9343    0.5150    8.5211 C   0  0  0  0  0  0  0  0  0  0  0  0
    8.2508    0.7361    8.5455 F   0  0  0  0  0  0  0  0  0  0  0  0
    6.6342    0.0156    7.2822 O   0  0  0  0  0  0  0  0  0  0  0  0
    5.3294    0.0143    6.8540 C   0  0  0  0  0  0  0  0  0  0  0  0
    5.1359    0.0024    5.4668 C   0  0  0  0  0  0  0  0  0  0  0  0
    3.8498   -0.0073    4.9447 C   0  0  0  0  0  0  0  0  0  0  0  0
    2.7177    0.0007    5.7905 C   0  0  0  0  0  0  0  0  0  0  0  0
    1.3414   -0.0004    5.3231 C   0  0  0  0  0  0  0  0  0  0  0  0
    0.8153   -0.0004    4.0777 C   0  0  0  0  0  0  0  0  0  0  0  0
    1.6223   -0.0000    2.5113 S   0  0  0  0  0  0  0  0  0  0  0  0
   -0.0000    0.0000    1.7367 C   0  0  0  0  0  0  0  0  0  0  0  0
    0.0000    0.0000    0.0000 S   0  0  0  0  0  0  0  0  0  0  0  0
   -1.0280    0.0001    2.5108 N   0  0  0  0  0  0  0  0  0  0  0  0
   -0.6867    0.0002    3.8753 C   0  0  0  0  0  0  0  0  0  0  0  0
   -1.4870    0.0010    4.7809 O   0  0  0  0  0  0  0  0  0  0  0  0
    2.9448    0.0050    7.1817 C   0  0  0  0  0  0  0  0  0  0  0  0
    4.2294    0.0036    7.7204 C   0  0  0  0  0  0  0  0  0  0  0  0
    6.3834    1.4468    8.7457 H   0  0  0  0  0  0  0  0  0  0  0  0
    6.0116    0.0049    4.8162 H   0  0  0  0  0  0  0  0  0  0  0  0
    3.7313   -0.0155    3.8613 H   0  0  0  0  0  0  0  0  0  0  0  0
    0.5705    0.0001    6.1022 H   0  0  0  0  0  0  0  0  0  0  0  0
   -2.2991    0.0004   -0.3092 Au  0  0  0  0  0  0  0  0  0  0  0  0
    2.0867   -0.0031    7.8576 H   0  0  0  0  0  0  0  0  0  0  0  0
    4.3686   -0.0368    8.8003 H   0  0  0  0  0  0  0  0  0  0  0  0
  2  3  1  0  0  0  0
  2 19  1  0  0  0  0
  2  1  1  0  0  0  0
  4  2  1  0  0  0  0
  5  4  1  0  0  0  0
  5 18  2  0  0  0  0
  6  5  1  0  0  0  0
  7  6  2  0  0  0  0
  7  8  1  0  0  0  0
  8 17  2  0  0  0  0
  9  8  1  0  0  0  0
  9 22  1  0  0  0  0
 10  9  2  0  0  0  0
 11 10  1  0  0  0  0
 12 14  2  0  0  0  0
 12 11  1  0  0  0  0
 13 12  1  0  0  0  0
 14 15  2  0  0  0  0
 15 10  1  0  0  0  0
 15 16  2  0  0  0  0
 17 18  1  0  0  0  0
 17 24  1  0  0  0  0
 18 25  1  0  0  0  0
 20  6  1  0  0  0  0
 21  7  1  0  0  0  0
 23 13  1  0  0  0  0
M  END
