001-579-390.xyz
 OpenBabel07262113393D
SC1=NC(=O)/C(=C/c2cccc(c2Cl)Cl)/S1
 21 22  0  0  0  0  0  0  0  0999 V2000
    0.0000    0.0000    0.0000 S   0  0  0  0  0  0  0  0  0  0  0  0
    0.0000    0.0000    1.7437 C   0  0  0  0  0  0  0  0  0  0  0  0
   -1.1071    0.0138    2.3923 N   0  0  0  0  0  0  0  0  0  0  0  0
   -0.9135    0.0046    3.7838 C   0  0  0  0  0  0  0  0  0  0  0  0
   -1.7944    0.0045    4.6067 O   0  0  0  0  0  0  0  0  0  0  0  0
    0.5701   -0.0247    4.1486 C   0  0  0  0  0  0  0  0  0  0  0  0
    1.5340    0.0000    2.6793 S   0  0  0  0  0  0  0  0  0  0  0  0
    0.9492   -0.1534    5.4351 C   0  0  0  0  0  0  0  0  0  0  0  0
    2.2798   -0.3349    6.0283 C   0  0  0  0  0  0  0  0  0  0  0  0
    2.4061   -1.3430    7.0054 C   0  0  0  0  0  0  0  0  0  0  0  0
    3.6316   -1.6371    7.5938 C   0  0  0  0  0  0  0  0  0  0  0  0
    4.7681   -0.9103    7.2385 C   0  0  0  0  0  0  0  0  0  0  0  0
    4.6640    0.1231    6.3056 C   0  0  0  0  0  0  0  0  0  0  0  0
    6.0873    1.0425    5.9137 Cl  0  0  0  0  0  0  0  0  0  0  0  0
    3.4272    0.4239    5.7058 C   0  0  0  0  0  0  0  0  0  0  0  0
    3.3162    1.7889    4.6367 Cl  0  0  0  0  0  0  0  0  0  0  0  0
    2.2546    0.0272   -0.5004 Au  0  0  0  0  0  0  0  0  0  0  0  0
    0.1016   -0.2423    6.1253 H   0  0  0  0  0  0  0  0  0  0  0  0
    1.5160   -1.9129    7.2799 H   0  0  0  0  0  0  0  0  0  0  0  0
    3.7071   -2.4349    8.3352 H   0  0  0  0  0  0  0  0  0  0  0  0
    5.7396   -1.1205    7.6871 H   0  0  0  0  0  0  0  0  0  0  0  0
  1  2  1  0  0  0  0
  2  3  2  0  0  0  0
  2  7  1  0  0  0  0
  3  4  2  0  0  0  0
  4  6  1  0  0  0  0
  4  5  2  0  0  0  0
  6  8  2  0  0  0  0
  7  6  1  0  0  0  0
  8  9  1  0  0  0  0
  8 18  1  0  0  0  0
  9 10  1  0  0  0  0
 10 19  1  0  0  0  0
 10 11  2  0  0  0  0
 11 20  1  0  0  0  0
 12 11  1  0  0  0  0
 12 21  1  0  0  0  0
 13 12  2  0  0  0  0
 14 13  1  0  0  0  0
 15  9  2  0  0  0  0
 15 13  1  0  0  0  0
 16 15  1  0  0  0  0
 17  1  1  0  0  0  0
M  END
