001-577-268.xyz
 OpenBabel07262113393D
CCOc1cc(ccc1O)/C=C/1\SC(=NC1=O)S
 29 30  0  0  0  0  0  0  0  0999 V2000
    4.0061    0.0034   11.3980 C   0  0  0  0  0  0  0  0  0  0  0  0
    3.4083    0.0027   10.0061 C   0  0  0  0  0  0  0  0  0  0  0  0
    4.4760    0.0026    9.0724 O   0  0  0  0  0  0  0  0  0  0  0  0
    4.1953    0.0021    7.7513 C   0  0  0  0  0  0  0  0  0  0  0  0
    2.9179    0.0014    7.1995 C   0  0  0  0  0  0  0  0  0  0  0  0
    2.7068    0.0010    5.7975 C   0  0  0  0  0  0  0  0  0  0  0  0
    1.3340    0.0005    5.3279 C   0  0  0  0  0  0  0  0  0  0  0  0
    0.8051    0.0002    4.0819 C   0  0  0  0  0  0  0  0  0  0  0  0
    1.6174    0.0000    2.5163 S   0  0  0  0  0  0  0  0  0  0  0  0
    0.0000   -0.0000    1.7392 C   0  0  0  0  0  0  0  0  0  0  0  0
    0.0000    0.0000    0.0000 S   0  0  0  0  0  0  0  0  0  0  0  0
   -1.0306    0.0000    2.5101 N   0  0  0  0  0  0  0  0  0  0  0  0
   -0.6918    0.0001    3.8773 C   0  0  0  0  0  0  0  0  0  0  0  0
   -1.4984    0.0001    4.7789 O   0  0  0  0  0  0  0  0  0  0  0  0
    3.8337    0.0012    4.9580 C   0  0  0  0  0  0  0  0  0  0  0  0
    5.1174    0.0019    5.5022 C   0  0  0  0  0  0  0  0  0  0  0  0
    5.3195    0.0024    6.8838 C   0  0  0  0  0  0  0  0  0  0  0  0
    6.5423    0.0030    7.4576 O   0  0  0  0  0  0  0  0  0  0  0  0
    4.6335   -0.8878   11.5492 H   0  0  0  0  0  0  0  0  0  0  0  0
    3.2074    0.0035   12.1553 H   0  0  0  0  0  0  0  0  0  0  0  0
    4.6331    0.8951   11.5486 H   0  0  0  0  0  0  0  0  0  0  0  0
    2.7721   -0.8889    9.8496 H   0  0  0  0  0  0  0  0  0  0  0  0
    2.7717    0.8939    9.8488 H   0  0  0  0  0  0  0  0  0  0  0  0
    2.0451    0.0012    7.8512 H   0  0  0  0  0  0  0  0  0  0  0  0
    0.5603    0.0006    6.1044 H   0  0  0  0  0  0  0  0  0  0  0  0
   -2.3001    0.0014   -0.3016 Au  0  0  0  0  0  0  0  0  0  0  0  0
    3.7262    0.0009    3.8740 H   0  0  0  0  0  0  0  0  0  0  0  0
    5.9894    0.0021    4.8410 H   0  0  0  0  0  0  0  0  0  0  0  0
    7.2173    0.0031    6.7660 H   0  0  0  0  0  0  0  0  0  0  0  0
  1 21  1  0  0  0  0
  1 19  1  0  0  0  0
  1 20  1  0  0  0  0
  2  1  1  0  0  0  0
  3  2  1  0  0  0  0
  4  3  1  0  0  0  0
  5  4  1  0  0  0  0
  5 24  1  0  0  0  0
  6  5  2  0  0  0  0
  7  6  1  0  0  0  0
  7 25  1  0  0  0  0
  8  7  2  0  0  0  0
  9  8  1  0  0  0  0
 10 12  2  0  0  0  0
 10  9  1  0  0  0  0
 11 10  1  0  0  0  0
 12 13  2  0  0  0  0
 13  8  1  0  0  0  0
 13 14  2  0  0  0  0
 15 16  2  0  0  0  0
 15  6  1  0  0  0  0
 16 17  1  0  0  0  0
 17 18  1  0  0  0  0
 17  4  2  0  0  0  0
 22  2  1  0  0  0  0
 23  2  1  0  0  0  0
 26 11  1  0  0  0  0
 27 15  1  0  0  0  0
 28 16  1  0  0  0  0
 29 18  1  0  0  0  0
M  END
