002-468-595.xyz
 OpenBabel07262113403D
Clc1ccc(cc1)N1C(=NCC1=O)S
 21 22  0  0  0  0  0  0  0  0999 V2000
    0.0000    0.0000    0.0000 S   0  0  0  0  0  0  0  0  0  0  0  0
   -0.0000   -0.0000    1.7617 C   0  0  0  0  0  0  0  0  0  0  0  0
    1.0305    0.0000    2.5277 N   0  0  0  0  0  0  0  0  0  0  0  0
    0.5461    0.0538    3.8963 C   0  0  0  0  0  0  0  0  0  0  0  0
   -0.9773    0.1162    3.8171 C   0  0  0  0  0  0  0  0  0  0  0  0
   -1.7991    0.2052    4.6930 O   0  0  0  0  0  0  0  0  0  0  0  0
   -1.2396    0.0459    2.4348 N   0  0  0  0  0  0  0  0  0  0  0  0
   -2.5409    0.0319    1.8681 C   0  0  0  0  0  0  0  0  0  0  0  0
   -3.4778    0.9959    2.2612 C   0  0  0  0  0  0  0  0  0  0  0  0
   -4.7641    0.9801    1.7250 C   0  0  0  0  0  0  0  0  0  0  0  0
   -5.1085    0.0034    0.7863 C   0  0  0  0  0  0  0  0  0  0  0  0
   -6.7146   -0.0081    0.1029 Cl  0  0  0  0  0  0  0  0  0  0  0  0
   -4.1840   -0.9673    0.3932 C   0  0  0  0  0  0  0  0  0  0  0  0
   -2.9047   -0.9597    0.9475 C   0  0  0  0  0  0  0  0  0  0  0  0
    2.3021    0.0607   -0.2614 Au  0  0  0  0  0  0  0  0  0  0  0  0
    0.9375    0.9344    4.4344 H   0  0  0  0  0  0  0  0  0  0  0  0
    0.8538   -0.8340    4.4762 H   0  0  0  0  0  0  0  0  0  0  0  0
   -3.1999    1.7527    2.9940 H   0  0  0  0  0  0  0  0  0  0  0  0
   -5.5000    1.7266    2.0257 H   0  0  0  0  0  0  0  0  0  0  0  0
   -4.4710   -1.7303   -0.3312 H   0  0  0  0  0  0  0  0  0  0  0  0
   -2.1850   -1.7285    0.6641 H   0  0  0  0  0  0  0  0  0  0  0  0
  1  2  1  0  0  0  0
  2  7  1  0  0  0  0
  2  3  2  0  0  0  0
  3  4  1  0  0  0  0
  4 16  1  0  0  0  0
  4 17  1  0  0  0  0
  5  4  1  0  0  0  0
  5  6  2  0  0  0  0
  7  5  1  0  0  0  0
  8  9  1  0  0  0  0
  8  7  1  0  0  0  0
  9 18  1  0  0  0  0
 10 19  1  0  0  0  0
 10  9  2  0  0  0  0
 11 10  1  0  0  0  0
 12 11  1  0  0  0  0
 13 11  2  0  0  0  0
 13 14  1  0  0  0  0
 14  8  2  0  0  0  0
 15  1  1  0  0  0  0
 20 13  1  0  0  0  0
 21 14  1  0  0  0  0
M  END
