002-576-782.xyz
 OpenBabel07262113403D
Clc1ccc(cc1)/C=N/n1c(S)nnc1c1ccc(cc1)Cl
 32 34  0  0  0  0  0  0  0  0999 V2000
    0.0000    0.0000    0.0000 S   0  0  0  0  0  0  0  0  0  0  0  0
   -0.0000   -0.0000    1.7538 C   0  0  0  0  0  0  0  0  0  0  0  0
   -1.0698    0.0913    2.5184 N   0  0  0  0  0  0  0  0  0  0  0  0
   -0.6759    0.1496    3.8200 N   0  0  0  0  0  0  0  0  0  0  0  0
    0.6356    0.1045    3.8708 C   0  0  0  0  0  0  0  0  0  0  0  0
    1.4130    0.1429    5.1132 C   0  0  0  0  0  0  0  0  0  0  0  0
    2.7567   -0.2577    5.2196 C   0  0  0  0  0  0  0  0  0  0  0  0
    3.4176   -0.2122    6.4473 C   0  0  0  0  0  0  0  0  0  0  0  0
    2.7380    0.2324    7.5825 C   0  0  0  0  0  0  0  0  0  0  0  0
    3.5660    0.2936    9.1185 Cl  0  0  0  0  0  0  0  0  0  0  0  0
    1.3981    0.6267    7.5018 C   0  0  0  0  0  0  0  0  0  0  0  0
    0.7453    0.5798    6.2751 C   0  0  0  0  0  0  0  0  0  0  0  0
    1.1304    0.0000    2.5684 N   0  0  0  0  0  0  0  0  0  0  0  0
    2.4564    0.0612    2.2743 N   0  0  0  0  0  0  0  0  0  0  0  0
    2.8885   -0.3885    1.1539 C   0  0  0  0  0  0  0  0  0  0  0  0
    4.3051   -0.2968    0.8034 C   0  0  0  0  0  0  0  0  0  0  0  0
    5.2332    0.3580    1.6361 C   0  0  0  0  0  0  0  0  0  0  0  0
    6.5769    0.4180    1.2868 C   0  0  0  0  0  0  0  0  0  0  0  0
    7.0053   -0.1753    0.0911 C   0  0  0  0  0  0  0  0  0  0  0  0
    8.6891   -0.0971   -0.3487 Cl  0  0  0  0  0  0  0  0  0  0  0  0
    6.1007   -0.8235   -0.7541 C   0  0  0  0  0  0  0  0  0  0  0  0
    4.7556   -0.8793   -0.3932 C   0  0  0  0  0  0  0  0  0  0  0  0
   -2.2642    0.5043   -0.2027 Au  0  0  0  0  0  0  0  0  0  0  0  0
    3.2912   -0.6111    4.3409 H   0  0  0  0  0  0  0  0  0  0  0  0
    4.4590   -0.5264    6.5280 H   0  0  0  0  0  0  0  0  0  0  0  0
    0.8786    0.9693    8.3976 H   0  0  0  0  0  0  0  0  0  0  0  0
   -0.2999    0.8803    6.1932 H   0  0  0  0  0  0  0  0  0  0  0  0
    2.2275   -0.8766    0.4216 H   0  0  0  0  0  0  0  0  0  0  0  0
    4.8800    0.8232    2.5578 H   0  0  0  0  0  0  0  0  0  0  0  0
    7.3007    0.9240    1.9270 H   0  0  0  0  0  0  0  0  0  0  0  0
    6.4531   -1.2761   -1.6816 H   0  0  0  0  0  0  0  0  0  0  0  0
    4.0427   -1.3846   -1.0498 H   0  0  0  0  0  0  0  0  0  0  0  0
  1  2  1  0  0  0  0
  2  3  2  0  0  0  0
  2 13  1  0  0  0  0
  3  4  1  0  0  0  0
  4  5  2  0  0  0  0
  5  6  1  0  0  0  0
  6  7  2  0  0  0  0
  6 12  1  0  0  0  0
  7  8  1  0  0  0  0
  8 25  1  0  0  0  0
  8  9  2  0  0  0  0
  9 10  1  0  0  0  0
 11  9  1  0  0  0  0
 11 26  1  0  0  0  0
 12 11  2  0  0  0  0
 13  5  1  0  0  0  0
 14 13  1  0  0  0  0
 15 14  2  0  0  0  0
 16 15  1  0  0  0  0
 16 17  2  0  0  0  0
 17 29  1  0  0  0  0
 18 17  1  0  0  0  0
 18 30  1  0  0  0  0
 19 18  2  0  0  0  0
 20 19  1  0  0  0  0
 21 22  2  0  0  0  0
 21 19  1  0  0  0  0
 22 16  1  0  0  0  0
 23  1  1  0  0  0  0
 24  7  1  0  0  0  0
 27 12  1  0  0  0  0
 28 15  1  0  0  0  0
 31 21  1  0  0  0  0
 32 22  1  0  0  0  0
M  END
