002-015-084.xyz
 OpenBabel07262113393D
Cc1ccccc1n1c(S)nnc1c1cnccn1
 30 32  0  0  0  0  0  0  0  0999 V2000
   -2.5469   -2.4864    2.0006 C   0  0  0  0  0  0  0  0  0  0  0  0
   -3.1627   -1.1638    1.6423 C   0  0  0  0  0  0  0  0  0  0  0  0
   -4.4312   -1.0667    1.0581 C   0  0  0  0  0  0  0  0  0  0  0  0
   -4.9997    0.1733    0.7539 C   0  0  0  0  0  0  0  0  0  0  0  0
   -4.3029    1.3521    1.0265 C   0  0  0  0  0  0  0  0  0  0  0  0
   -3.0357    1.2807    1.6064 C   0  0  0  0  0  0  0  0  0  0  0  0
   -2.4840    0.0364    1.9109 C   0  0  0  0  0  0  0  0  0  0  0  0
   -1.1667   -0.0131    2.4761 N   0  0  0  0  0  0  0  0  0  0  0  0
    0.0000    0.0000    1.7525 C   0  0  0  0  0  0  0  0  0  0  0  0
    0.0000    0.0000    0.0000 S   0  0  0  0  0  0  0  0  0  0  0  0
    1.0414    0.0000    2.5713 N   0  0  0  0  0  0  0  0  0  0  0  0
    0.5664   -0.0135    3.8426 N   0  0  0  0  0  0  0  0  0  0  0  0
   -0.7495   -0.0259    3.7997 C   0  0  0  0  0  0  0  0  0  0  0  0
   -1.6203   -0.0556    4.9721 C   0  0  0  0  0  0  0  0  0  0  0  0
   -1.0802    0.1686    6.2581 C   0  0  0  0  0  0  0  0  0  0  0  0
   -1.8411    0.1370    7.3459 N   0  0  0  0  0  0  0  0  0  0  0  0
   -3.1440   -0.1125    7.1718 C   0  0  0  0  0  0  0  0  0  0  0  0
   -3.6814   -0.3375    5.9017 C   0  0  0  0  0  0  0  0  0  0  0  0
   -2.9227   -0.3138    4.8066 N   0  0  0  0  0  0  0  0  0  0  0  0
   -3.1775   -3.3213    1.6652 H   0  0  0  0  0  0  0  0  0  0  0  0
   -1.5504   -2.6011    1.5455 H   0  0  0  0  0  0  0  0  0  0  0  0
   -2.4220   -2.5648    3.0929 H   0  0  0  0  0  0  0  0  0  0  0  0
   -4.9831   -1.9844    0.8399 H   0  0  0  0  0  0  0  0  0  0  0  0
   -5.9916    0.2169    0.2979 H   0  0  0  0  0  0  0  0  0  0  0  0
   -4.7404    2.3235    0.7873 H   0  0  0  0  0  0  0  0  0  0  0  0
   -2.4640    2.1838    1.8273 H   0  0  0  0  0  0  0  0  0  0  0  0
    2.3075   -0.0393   -0.2284 Au  0  0  0  0  0  0  0  0  0  0  0  0
   -0.0115    0.3716    6.3700 H   0  0  0  0  0  0  0  0  0  0  0  0
   -3.7791   -0.1371    8.0638 H   0  0  0  0  0  0  0  0  0  0  0  0
   -4.7484   -0.5467    5.7688 H   0  0  0  0  0  0  0  0  0  0  0  0
  1 22  1  0  0  0  0
  2  7  1  0  0  0  0
  2  1  1  0  0  0  0
  3  2  2  0  0  0  0
  4  5  2  0  0  0  0
  4  3  1  0  0  0  0
  5  6  1  0  0  0  0
  6 26  1  0  0  0  0
  6  7  2  0  0  0  0
  7  8  1  0  0  0  0
  8 13  1  0  0  0  0
  9  8  1  0  0  0  0
  9 11  2  0  0  0  0
 10  9  1  0  0  0  0
 11 12  1  0  0  0  0
 13 12  2  0  0  0  0
 13 14  1  0  0  0  0
 14 15  1  0  0  0  0
 15 28  1  0  0  0  0
 15 16  2  0  0  0  0
 17 16  2  0  0  0  0
 17 29  1  0  0  0  0
 18 17  1  0  0  0  0
 19 14  2  0  0  0  0
 19 18  2  0  0  0  0
 20  1  1  0  0  0  0
 21  1  1  0  0  0  0
 23  3  1  0  0  0  0
 24  4  1  0  0  0  0
 25  5  1  0  0  0  0
 27 10  1  0  0  0  0
 30 18  1  0  0  0  0
M  END
