002-465-241.xyz
 OpenBabel07262113393D
Sc1nc2ccccc2c(=O)n1c1cccc(c1)S(=O)(=O)N1CCCC1
 43 46  0  0  1  0  0  0  0  0999 V2000
    0.0000    0.0000    0.0000 S   0  0  0  0  0  0  0  0  0  0  0  0
    0.0000   -0.0000    1.7830 C   0  0  0  0  0  0  0  0  0  0  0  0
   -1.0986   -0.0215    2.4613 N   0  0  0  0  0  0  0  0  0  0  0  0
   -1.0300   -0.0527    3.8406 C   0  0  0  0  0  0  0  0  0  0  0  0
   -2.2234   -0.0590    4.5926 C   0  0  0  0  0  0  0  0  0  0  0  0
   -2.1735   -0.0975    5.9792 C   0  0  0  0  0  0  0  0  0  0  0  0
   -0.9395   -0.1328    6.6563 C   0  0  0  0  0  0  0  0  0  0  0  0
    0.2442   -0.1284    5.9314 C   0  0  0  0  0  0  0  0  0  0  0  0
    0.2068   -0.0872    4.5272 C   0  0  2  0  0  0  0  0  0  0  0  0
    1.4582   -0.0747    3.7642 C   0  0  0  0  0  0  0  0  0  0  0  0
    2.5796   -0.1151    4.2265 O   0  0  0  0  0  0  0  0  0  0  0  0
    1.2650   -0.0000    2.3557 N   0  0  0  0  0  0  0  0  0  0  0  0
    2.4344    0.0760    1.5249 C   0  0  0  0  0  0  0  0  0  0  0  0
    3.2332   -1.0548    1.3287 C   0  0  0  0  0  0  0  0  0  0  0  0
    4.3398   -0.9800    0.4826 C   0  0  0  0  0  0  0  0  0  0  0  0
    4.6320    0.2082   -0.1936 C   0  0  0  0  0  0  0  0  0  0  0  0
    3.8209    1.3265    0.0142 C   0  0  0  0  0  0  0  0  0  0  0  0
    2.7449    1.2859    0.9029 C   0  0  0  0  0  0  0  0  0  0  0  0
    4.0642    2.8036   -0.9794 S   0  0  0  0  0  0  0  0  0  0  0  0
    3.6154    3.9487   -0.1889 O   0  0  0  0  0  0  0  0  0  0  0  0
    5.4003    2.7114   -1.5651 O   0  0  0  0  0  0  0  0  0  0  0  0
    2.9726    2.6383   -2.2207 N   0  0  0  0  0  0  0  0  0  0  0  0
    3.1550    1.5699   -3.2198 C   0  0  0  0  0  0  0  0  0  0  0  0
    1.7439    0.9980   -3.3899 C   0  0  0  0  0  0  0  0  0  0  0  0
    0.8468    2.2179   -3.1435 C   0  0  0  0  0  0  0  0  0  0  0  0
    1.5469    2.9378   -1.9859 C   0  0  0  0  0  0  0  0  0  0  0  0
   -2.2865   -0.0643   -0.3341 Au  0  0  0  0  0  0  0  0  0  0  0  0
   -3.1723   -0.0332    4.0545 H   0  0  0  0  0  0  0  0  0  0  0  0
   -3.1042   -0.1010    6.5520 H   0  0  0  0  0  0  0  0  0  0  0  0
   -0.9160   -0.1627    7.7476 H   0  0  0  0  0  0  0  0  0  0  0  0
    1.2198   -0.1541    6.4201 H   0  0  0  0  0  0  0  0  0  0  0  0
    2.9807   -1.9831    1.8423 H   0  0  0  0  0  0  0  0  0  0  0  0
    4.9747   -1.8569    0.3406 H   0  0  0  0  0  0  0  0  0  0  0  0
    5.4871    0.2881   -0.8662 H   0  0  0  0  0  0  0  0  0  0  0  0
    2.1539    2.1804    1.0971 H   0  0  0  0  0  0  0  0  0  0  0  0
    3.5441    1.9968   -4.1594 H   0  0  0  0  0  0  0  0  0  0  0  0
    3.8820    0.8197   -2.8759 H   0  0  0  0  0  0  0  0  0  0  0  0
    1.5570    0.2364   -2.6151 H   0  0  0  0  0  0  0  0  0  0  0  0
    1.5903    0.5302   -4.3733 H   0  0  0  0  0  0  0  0  0  0  0  0
   -0.1900    1.9514   -2.8907 H   0  0  0  0  0  0  0  0  0  0  0  0
    0.8247    2.8621   -4.0376 H   0  0  0  0  0  0  0  0  0  0  0  0
    1.3761    4.0228   -1.9720 H   0  0  0  0  0  0  0  0  0  0  0  0
    1.2019    2.5226   -1.0242 H   0  0  0  0  0  0  0  0  0  0  0  0
  1  2  1  0  0  0  0
  2 12  1  0  0  0  0
  2  3  2  0  0  0  0
  3  4  2  0  0  0  0
  4  9  1  0  0  0  0
  4  5  1  0  0  0  0
  5  6  2  0  0  0  0
  6 29  1  0  0  0  0
  6  7  1  0  0  0  0
  7 30  1  0  0  0  0
  8 31  1  0  0  0  0
  8  7  2  0  0  0  0
  9 10  1  1  0  0  0
  9  8  1  0  0  0  0
 10 11  2  0  0  0  0
 12 10  1  0  0  0  0
 13 12  1  0  0  0  0
 14 13  1  0  0  0  0
 14 32  1  0  0  0  0
 15 14  2  0  0  0  0
 16 17  2  0  0  0  0
 16 15  1  0  0  0  0
 17 18  1  0  0  0  0
 18 35  1  0  0  0  0
 18 13  2  0  0  0  0
 19 20  2  0  0  0  0
 19 17  1  0  0  0  0
 21 19  2  0  0  0  0
 22 26  1  0  0  0  0
 22 19  1  0  0  0  0
 23 37  1  0  0  0  0
 23 22  1  0  0  0  0
 24 23  1  0  0  0  0
 24 25  1  0  0  0  0
 24 38  1  0  0  0  0
 25 40  1  0  0  0  0
 25 26  1  0  0  0  0
 26 42  1  0  0  0  0
 26 43  1  0  0  0  0
 27  1  1  0  0  0  0
 28  5  1  0  0  0  0
 33 15  1  0  0  0  0
 34 16  1  0  0  0  0
 36 23  1  0  0  0  0
 39 24  1  0  0  0  0
 41 25  1  0  0  0  0
M  RAD  1   9   2
M  END
