002-277-617.xyz
 OpenBabel07262113393D
COc1ccccc1n1c(S)nnc1c1ccco1
 30 32  0  0  0  0  0  0  0  0999 V2000
   -3.3608    3.3361    3.4325 C   0  0  0  0  0  0  0  0  0  0  0  0
   -2.6262    2.2151    2.9926 O   0  0  0  0  0  0  0  0  0  0  0  0
   -3.2356    1.2788    2.2377 C   0  0  0  0  0  0  0  0  0  0  0  0
   -4.5332    1.3809    1.7219 C   0  0  0  0  0  0  0  0  0  0  0  0
   -5.0585    0.3456    0.9408 C   0  0  0  0  0  0  0  0  0  0  0  0
   -4.3097   -0.7995    0.6715 C   0  0  0  0  0  0  0  0  0  0  0  0
   -3.0201   -0.9139    1.1986 C   0  0  0  0  0  0  0  0  0  0  0  0
   -2.4858    0.1125    1.9731 C   0  0  0  0  0  0  0  0  0  0  0  0
   -1.1650    0.0135    2.4941 N   0  0  0  0  0  0  0  0  0  0  0  0
   -0.0000    0.0000    1.7563 C   0  0  0  0  0  0  0  0  0  0  0  0
    0.0000    0.0000    0.0000 S   0  0  0  0  0  0  0  0  0  0  0  0
    1.0428   -0.0000    2.5640 N   0  0  0  0  0  0  0  0  0  0  0  0
    0.5827    0.0185    3.8477 N   0  0  0  0  0  0  0  0  0  0  0  0
   -0.7315    0.0336    3.8142 C   0  0  0  0  0  0  0  0  0  0  0  0
   -1.5753    0.0678    4.9877 C   0  0  0  0  0  0  0  0  0  0  0  0
   -1.2666    0.2754    6.3101 C   0  0  0  0  0  0  0  0  0  0  0  0
   -2.5046    0.1932    7.0241 C   0  0  0  0  0  0  0  0  0  0  0  0
   -3.4701   -0.0584    6.0887 C   0  0  0  0  0  0  0  0  0  0  0  0
   -2.9139   -0.1398    4.8520 O   0  0  0  0  0  0  0  0  0  0  0  0
   -4.2419    3.0309    4.0234 H   0  0  0  0  0  0  0  0  0  0  0  0
   -3.6917    3.9646    2.5872 H   0  0  0  0  0  0  0  0  0  0  0  0
   -2.6835    3.9187    4.0696 H   0  0  0  0  0  0  0  0  0  0  0  0
   -5.1349    2.2678    1.9176 H   0  0  0  0  0  0  0  0  0  0  0  0
   -6.0701    0.4441    0.5401 H   0  0  0  0  0  0  0  0  0  0  0  0
   -4.7245   -1.6042    0.0621 H   0  0  0  0  0  0  0  0  0  0  0  0
   -2.4133   -1.8018    1.0143 H   0  0  0  0  0  0  0  0  0  0  0  0
    2.3092    0.0430   -0.2119 Au  0  0  0  0  0  0  0  0  0  0  0  0
   -0.2706    0.4635    6.7011 H   0  0  0  0  0  0  0  0  0  0  0  0
   -2.6556    0.3064    8.0952 H   0  0  0  0  0  0  0  0  0  0  0  0
   -4.5451   -0.2064    6.1378 H   0  0  0  0  0  0  0  0  0  0  0  0
  1 20  1  0  0  0  0
  1 22  1  0  0  0  0
  2  1  1  0  0  0  0
  3  2  1  0  0  0  0
  4 23  1  0  0  0  0
  4  3  2  0  0  0  0
  5  4  1  0  0  0  0
  6  5  2  0  0  0  0
  6  7  1  0  0  0  0
  7  8  2  0  0  0  0
  8  3  1  0  0  0  0
  8  9  1  0  0  0  0
  9 14  1  0  0  0  0
 10  9  1  0  0  0  0
 10 12  2  0  0  0  0
 11 10  1  0  0  0  0
 12 13  1  0  0  0  0
 14 13  2  0  0  0  0
 14 15  1  0  0  0  0
 15 16  2  0  0  0  0
 16 28  1  0  0  0  0
 16 17  1  0  0  0  0
 17 29  1  0  0  0  0
 18 30  1  0  0  0  0
 18 17  2  0  0  0  0
 19 15  1  0  0  0  0
 19 18  1  0  0  0  0
 21  1  1  0  0  0  0
 24  5  1  0  0  0  0
 25  6  1  0  0  0  0
 26  7  1  0  0  0  0
 27 11  1  0  0  0  0
M  END
