002-580-896.xyz
 OpenBabel07262113403D
SC1=NC(=O)/C(=C/c2ccc(cc2)F)/C(=N1)O
 24 25  0  0  0  0  0  0  0  0999 V2000
   -2.3603    0.0087    4.3514 O   0  0  0  0  0  0  0  0  0  0  0  0
   -1.1903    0.0657    3.7113 C   0  0  0  0  0  0  0  0  0  0  0  0
   -1.2188   -0.0107    2.4154 N   0  0  0  0  0  0  0  0  0  0  0  0
    0.0000   -0.0000    1.7639 C   0  0  0  0  0  0  0  0  0  0  0  0
    0.0000    0.0000    0.0000 S   0  0  0  0  0  0  0  0  0  0  0  0
    1.1826    0.0000    2.2884 N   0  0  0  0  0  0  0  0  0  0  0  0
    1.3158    0.0322    3.6688 C   0  0  0  0  0  0  0  0  0  0  0  0
    2.4021   -0.0168    4.2128 O   0  0  0  0  0  0  0  0  0  0  0  0
    0.0356    0.1562    4.4855 C   0  0  0  0  0  0  0  0  0  0  0  0
    0.2134    0.2596    5.8385 C   0  0  0  0  0  0  0  0  0  0  0  0
   -0.6221    0.4721    7.0070 C   0  0  0  0  0  0  0  0  0  0  0  0
   -1.9255    1.0201    7.0152 C   0  0  0  0  0  0  0  0  0  0  0  0
   -2.6117    1.2144    8.2079 C   0  0  0  0  0  0  0  0  0  0  0  0
   -2.0062    0.8508    9.4118 C   0  0  0  0  0  0  0  0  0  0  0  0
   -2.6734    1.0286   10.5532 F   0  0  0  0  0  0  0  0  0  0  0  0
   -0.7174    0.3209    9.4524 C   0  0  0  0  0  0  0  0  0  0  0  0
   -0.0318    0.1545    8.2551 C   0  0  0  0  0  0  0  0  0  0  0  0
   -3.0388   -0.1030    3.6616 H   0  0  0  0  0  0  0  0  0  0  0  0
   -2.2354   -0.0263   -0.5462 Au  0  0  0  0  0  0  0  0  0  0  0  0
    1.2786    0.1571    6.0831 H   0  0  0  0  0  0  0  0  0  0  0  0
   -2.3959    1.3064    6.0796 H   0  0  0  0  0  0  0  0  0  0  0  0
   -3.6132    1.6473    8.2252 H   0  0  0  0  0  0  0  0  0  0  0  0
   -0.2705    0.0629   10.4136 H   0  0  0  0  0  0  0  0  0  0  0  0
    0.9867   -0.2395    8.2726 H   0  0  0  0  0  0  0  0  0  0  0  0
  2  1  1  0  0  0  0
  2  9  1  0  0  0  0
  3  2  2  0  0  0  0
  4  6  2  0  0  0  0
  4  3  2  0  0  0  0
  5  4  1  0  0  0  0
  6  7  2  0  0  0  0
  7  8  2  0  0  0  0
  7  9  1  0  0  0  0
  9 10  2  0  0  0  0
 10 20  1  0  0  0  0
 10 11  1  0  0  0  0
 11 12  2  0  0  0  0
 11 17  1  0  0  0  0
 12 13  1  0  0  0  0
 13 22  1  0  0  0  0
 13 14  2  0  0  0  0
 14 16  1  0  0  0  0
 14 15  1  0  0  0  0
 16 23  1  0  0  0  0
 17 24  1  0  0  0  0
 17 16  2  0  0  0  0
 18  1  1  0  0  0  0
 19  5  1  0  0  0  0
 21 12  1  0  0  0  0
M  END
