002-469-275.xyz
 OpenBabel07262113403D
CCN1CCc2c(C1)sc1c2c(=O)n(c(n1)S)c1cccc(c1)OC
 44 47  0  0  1  0  0  0  0  0999 V2000
    0.2885   -1.0198   10.9763 C   0  0  0  0  0  0  0  0  0  0  0  0
    1.1795   -0.2510   10.0056 C   0  0  0  0  0  0  0  0  0  0  0  0
    0.7322   -0.3258    8.6228 N   0  0  0  0  0  0  0  0  0  0  0  0
   -0.4891    0.4237    8.3486 C   0  0  0  0  0  0  0  0  0  0  0  0
   -1.0962    0.0138    7.0062 C   0  0  0  0  0  0  0  0  0  0  0  0
   -0.0355    0.0078    5.9440 C   0  0  0  0  0  0  0  0  0  0  0  0
    1.2904    0.0045    6.2836 C   0  0  0  0  0  0  0  0  0  0  0  0
    1.7992    0.0154    7.6940 C   0  0  0  0  0  0  0  0  0  0  0  0
    2.3533    0.0028    4.8877 S   0  0  0  0  0  0  0  0  0  0  0  0
    0.9779    0.0000    3.8095 C   0  0  0  0  0  0  0  0  0  0  0  0
   -0.2231   -0.0000    4.5194 C   0  0  2  0  0  0  0  0  0  0  0  0
   -1.4645    0.0070    3.7781 C   0  0  0  0  0  0  0  0  0  0  0  0
   -2.5967    0.0187    4.2222 O   0  0  0  0  0  0  0  0  0  0  0  0
   -1.2519    0.0019    2.3547 N   0  0  0  0  0  0  0  0  0  0  0  0
   -0.0000    0.0000    1.7748 C   0  0  0  0  0  0  0  0  0  0  0  0
    1.1087   -0.0000    2.4629 N   0  0  0  0  0  0  0  0  0  0  0  0
    0.0000    0.0000    0.0000 S   0  0  0  0  0  0  0  0  0  0  0  0
   -2.4308    0.0071    1.5266 C   0  0  0  0  0  0  0  0  0  0  0  0
   -2.9968    1.2274    1.1393 C   0  0  0  0  0  0  0  0  0  0  0  0
   -4.1319    1.2095    0.3345 C   0  0  0  0  0  0  0  0  0  0  0  0
   -4.7049    0.0015   -0.0796 C   0  0  0  0  0  0  0  0  0  0  0  0
   -4.1320   -1.2145    0.3225 C   0  0  0  0  0  0  0  0  0  0  0  0
   -2.9872   -1.2050    1.1344 C   0  0  0  0  0  0  0  0  0  0  0  0
   -4.6060   -2.4364   -0.0187 O   0  0  0  0  0  0  0  0  0  0  0  0
   -5.7606   -2.5223   -0.8221 C   0  0  0  0  0  0  0  0  0  0  0  0
   -0.7198   -0.5850   11.0537 H   0  0  0  0  0  0  0  0  0  0  0  0
    0.7262   -1.0099   11.9869 H   0  0  0  0  0  0  0  0  0  0  0  0
    0.1826   -2.0654   10.6486 H   0  0  0  0  0  0  0  0  0  0  0  0
    1.2849    0.8076   10.3429 H   0  0  0  0  0  0  0  0  0  0  0  0
    2.1939   -0.6816   10.0448 H   0  0  0  0  0  0  0  0  0  0  0  0
   -1.2133    0.2301    9.1511 H   0  0  0  0  0  0  0  0  0  0  0  0
   -0.2940    1.5223    8.3505 H   0  0  0  0  0  0  0  0  0  0  0  0
   -1.9175    0.6878    6.7212 H   0  0  0  0  0  0  0  0  0  0  0  0
   -1.5407   -0.9930    7.0868 H   0  0  0  0  0  0  0  0  0  0  0  0
    2.2411    1.0179    7.9198 H   0  0  0  0  0  0  0  0  0  0  0  0
    2.6194   -0.7139    7.8116 H   0  0  0  0  0  0  0  0  0  0  0  0
    2.2893    0.0091   -0.3342 Au  0  0  0  0  0  0  0  0  0  0  0  0
   -2.5437    2.1631    1.4673 H   0  0  0  0  0  0  0  0  0  0  0  0
   -4.5876    2.1507    0.0191 H   0  0  0  0  0  0  0  0  0  0  0  0
   -5.5934    0.0197   -0.7097 H   0  0  0  0  0  0  0  0  0  0  0  0
   -2.5453   -2.1515    1.4455 H   0  0  0  0  0  0  0  0  0  0  0  0
   -5.9633   -3.5917   -0.9653 H   0  0  0  0  0  0  0  0  0  0  0  0
   -5.6089   -2.0506   -1.8097 H   0  0  0  0  0  0  0  0  0  0  0  0
   -6.6343   -2.0534   -0.3349 H   0  0  0  0  0  0  0  0  0  0  0  0
  1 26  1  0  0  0  0
  1 27  1  0  0  0  0
  2 30  1  0  0  0  0
  2 29  1  0  0  0  0
  2  1  1  0  0  0  0
  3  2  1  0  0  0  0
  4 32  1  0  0  0  0
  4  3  1  0  0  0  0
  4 31  1  0  0  0  0
  5 34  1  0  0  0  0
  5  4  1  0  0  0  0
  6  7  2  0  0  0  0
  6  5  1  0  0  0  0
  7  8  1  0  0  0  0
  8 36  1  0  0  0  0
  8 35  1  0  0  0  0
  8  3  1  0  0  0  0
  9  7  1  0  0  0  0
 10 11  1  0  0  0  0
 10  9  1  0  0  0  0
 11 12  1  6  0  0  0
 11  6  1  0  0  0  0
 12 13  2  0  0  0  0
 14 12  1  0  0  0  0
 15 14  1  0  0  0  0
 15 16  2  0  0  0  0
 16 10  2  0  0  0  0
 17 15  1  0  0  0  0
 18 14  1  0  0  0  0
 19 38  1  0  0  0  0
 19 18  1  0  0  0  0
 20 19  2  0  0  0  0
 21 22  2  0  0  0  0
 21 20  1  0  0  0  0
 22 23  1  0  0  0  0
 23 41  1  0  0  0  0
 23 18  2  0  0  0  0
 24 22  1  0  0  0  0
 25 44  1  0  0  0  0
 25 24  1  0  0  0  0
 28  1  1  0  0  0  0
 33  5  1  0  0  0  0
 37 17  1  0  0  0  0
 39 20  1  0  0  0  0
 40 21  1  0  0  0  0
 42 25  1  0  0  0  0
 43 25  1  0  0  0  0
M  RAD  1  11   2
M  END
