002-365-469.xyz
 OpenBabel07262113393D
Clc1ccc(cc1)c1cn(c(n1)S)c1ccccc1C
 33 35  0  0  0  0  0  0  0  0999 V2000
    2.5455   -2.2291    1.3138 C   0  0  0  0  0  0  0  0  0  0  0  0
    3.1801   -0.8758    1.4710 C   0  0  0  0  0  0  0  0  0  0  0  0
    4.4722   -0.6108    0.9927 C   0  0  0  0  0  0  0  0  0  0  0  0
    5.0563    0.6511    1.1184 C   0  0  0  0  0  0  0  0  0  0  0  0
    4.3581    1.6889    1.7416 C   0  0  0  0  0  0  0  0  0  0  0  0
    3.0691    1.4523    2.2234 C   0  0  0  0  0  0  0  0  0  0  0  0
    2.4902    0.1851    2.0829 C   0  0  0  0  0  0  0  0  0  0  0  0
    1.1500   -0.0000    2.5337 N   0  0  0  0  0  0  0  0  0  0  0  0
    0.7337   -0.0466    3.8453 C   0  0  0  0  0  0  0  0  0  0  0  0
   -0.6541   -0.1094    3.8104 C   0  0  0  0  0  0  0  0  0  0  0  0
   -1.0775   -0.0614    2.5048 N   0  0  0  0  0  0  0  0  0  0  0  0
    0.0000    0.0000    1.7496 C   0  0  0  0  0  0  0  0  0  0  0  0
    0.0000    0.0000    0.0000 S   0  0  0  0  0  0  0  0  0  0  0  0
   -1.6028   -0.2042    4.9255 C   0  0  0  0  0  0  0  0  0  0  0  0
   -2.9840   -0.2290    4.6637 C   0  0  0  0  0  0  0  0  0  0  0  0
   -3.9096   -0.3151    5.7014 C   0  0  0  0  0  0  0  0  0  0  0  0
   -3.4579   -0.3779    7.0225 C   0  0  0  0  0  0  0  0  0  0  0  0
   -4.6129   -0.4862    8.3307 Cl  0  0  0  0  0  0  0  0  0  0  0  0
   -2.0901   -0.3560    7.3092 C   0  0  0  0  0  0  0  0  0  0  0  0
   -1.1740   -0.2705    6.2628 C   0  0  0  0  0  0  0  0  0  0  0  0
    2.0191   -2.5354    2.2303 H   0  0  0  0  0  0  0  0  0  0  0  0
    1.7959   -2.2046    0.5057 H   0  0  0  0  0  0  0  0  0  0  0  0
    3.2970   -2.9919    1.0671 H   0  0  0  0  0  0  0  0  0  0  0  0
    5.0299   -1.4185    0.5122 H   0  0  0  0  0  0  0  0  0  0  0  0
    6.0642    0.8227    0.7337 H   0  0  0  0  0  0  0  0  0  0  0  0
    4.8116    2.6761    1.8532 H   0  0  0  0  0  0  0  0  0  0  0  0
    2.4944    2.2436    2.7087 H   0  0  0  0  0  0  0  0  0  0  0  0
    1.4498   -0.0326    4.6618 H   0  0  0  0  0  0  0  0  0  0  0  0
    1.2945    1.8623   -0.4985 Au  0  0  0  0  0  0  0  0  0  0  0  0
   -3.3155   -0.1790    3.6257 H   0  0  0  0  0  0  0  0  0  0  0  0
   -4.9806   -0.3339    5.4945 H   0  0  0  0  0  0  0  0  0  0  0  0
   -1.7528   -0.4074    8.3453 H   0  0  0  0  0  0  0  0  0  0  0  0
   -0.1074   -0.2572    6.4979 H   0  0  0  0  0  0  0  0  0  0  0  0
  1  2  1  0  0  0  0
  1 21  1  0  0  0  0
  2  7  2  0  0  0  0
  3  4  2  0  0  0  0
  3  2  1  0  0  0  0
  4  5  1  0  0  0  0
  5 26  1  0  0  0  0
  5  6  2  0  0  0  0
  6 27  1  0  0  0  0
  7  6  1  0  0  0  0
  7  8  1  0  0  0  0
  8  9  1  0  0  0  0
  9 28  1  0  0  0  0
 10  9  1  0  0  0  0
 10 14  1  0  0  0  0
 11 10  2  0  0  0  0
 12 11  2  0  0  0  0
 12  8  1  0  0  0  0
 13 12  1  0  0  0  0
 14 20  1  0  0  0  0
 15 14  2  0  0  0  0
 15 16  1  0  0  0  0
 16 17  2  0  0  0  0
 17 19  1  0  0  0  0
 17 18  1  0  0  0  0
 19 32  1  0  0  0  0
 20 33  1  0  0  0  0
 20 19  2  0  0  0  0
 22  1  1  0  0  0  0
 23  1  1  0  0  0  0
 24  3  1  0  0  0  0
 25  4  1  0  0  0  0
 29 13  1  0  0  0  0
 30 15  1  0  0  0  0
 31 16  1  0  0  0  0
M  RAD  1   9   2
M  END
