002-463-502.xyz
 OpenBabel07262113393D
CC1CCc2c(C1)sc1c2c(=O)n(c(n1)S)c1ccc(c(c1)Cl)C
 41 44  0  0  1  0  0  0  0  0999 V2000
   -1.1633    0.1571   10.1378 C   0  0  0  0  0  0  0  0  0  0  0  0
   -0.7091    0.3952    8.6988 C   0  0  1  0  0  0  0  0  0  0  0  0
    0.5951   -0.3467    8.3712 C   0  0  0  0  0  0  0  0  0  0  0  0
    1.1385    0.0128    6.9841 C   0  0  0  0  0  0  0  0  0  0  0  0
    0.0464    0.0043    5.9484 C   0  0  0  0  0  0  0  0  0  0  0  0
   -1.2816    0.0053    6.2931 C   0  0  0  0  0  0  0  0  0  0  0  0
   -1.8091   -0.0023    7.6969 C   0  0  0  0  0  0  0  0  0  0  0  0
   -2.3434    0.0008    4.8923 S   0  0  0  0  0  0  0  0  0  0  0  0
   -0.9731    0.0026    3.8126 C   0  0  0  0  0  0  0  0  0  0  0  0
    0.2290    0.0070    4.5215 C   0  0  2  0  0  0  0  0  0  0  0  0
    1.4686    0.0059    3.7774 C   0  0  0  0  0  0  0  0  0  0  0  0
    2.6037    0.0070    4.2151 O   0  0  0  0  0  0  0  0  0  0  0  0
    1.2536   -0.0000    2.3534 N   0  0  0  0  0  0  0  0  0  0  0  0
    0.0000    0.0000    1.7747 C   0  0  0  0  0  0  0  0  0  0  0  0
   -1.1059    0.0008    2.4652 N   0  0  0  0  0  0  0  0  0  0  0  0
    0.0000    0.0000    0.0000 S   0  0  0  0  0  0  0  0  0  0  0  0
    2.4295   -0.0046    1.5255 C   0  0  0  0  0  0  0  0  0  0  0  0
    3.0224    1.1996    1.1450 C   0  0  0  0  0  0  0  0  0  0  0  0
    4.1590    1.1774    0.3393 C   0  0  0  0  0  0  0  0  0  0  0  0
    4.7330   -0.0247   -0.1008 C   0  0  0  0  0  0  0  0  0  0  0  0
    4.1121   -1.2186    0.3100 C   0  0  0  0  0  0  0  0  0  0  0  0
    2.9763   -1.2217    1.1170 C   0  0  0  0  0  0  0  0  0  0  0  0
    4.7758   -2.7557   -0.2001 Cl  0  0  0  0  0  0  0  0  0  0  0  0
    5.9582   -0.0368   -0.9706 C   0  0  0  0  0  0  0  0  0  0  0  0
   -2.1058    0.6850   10.3558 H   0  0  0  0  0  0  0  0  0  0  0  0
   -0.4065    0.5060   10.8579 H   0  0  0  0  0  0  0  0  0  0  0  0
   -1.3313   -0.9174   10.3234 H   0  0  0  0  0  0  0  0  0  0  0  0
   -0.5186    1.4767    8.5665 H   0  0  0  0  0  0  0  0  0  0  0  0
    0.4032   -1.4342    8.4235 H   0  0  0  0  0  0  0  0  0  0  0  0
    1.3549   -0.1263    9.1384 H   0  0  0  0  0  0  0  0  0  0  0  0
    1.6046    1.0145    7.0035 H   0  0  0  0  0  0  0  0  0  0  0  0
    1.9455   -0.6692    6.6785 H   0  0  0  0  0  0  0  0  0  0  0  0
   -2.1886   -1.0104    7.9524 H   0  0  0  0  0  0  0  0  0  0  0  0
   -2.6717    0.6788    7.7937 H   0  0  0  0  0  0  0  0  0  0  0  0
   -2.2900    0.0001   -0.3326 Au  0  0  0  0  0  0  0  0  0  0  0  0
    2.5886    2.1429    1.4790 H   0  0  0  0  0  0  0  0  0  0  0  0
    4.6220    2.1200    0.0387 H   0  0  0  0  0  0  0  0  0  0  0  0
    2.5172   -2.1620    1.4210 H   0  0  0  0  0  0  0  0  0  0  0  0
    5.7607   -0.5529   -1.9238 H   0  0  0  0  0  0  0  0  0  0  0  0
    6.7813   -0.5846   -0.4842 H   0  0  0  0  0  0  0  0  0  0  0  0
    6.2978    0.9850   -1.1885 H   0  0  0  0  0  0  0  0  0  0  0  0
  1 27  1  0  0  0  0
  1 25  1  0  0  0  0
  1 26  1  0  0  0  0
  2 28  1  6  0  0  0
  2  1  1  0  0  0  0
  3 29  1  0  0  0  0
  3  2  1  0  0  0  0
  3 30  1  0  0  0  0
  4 31  1  0  0  0  0
  4  3  1  0  0  0  0
  5  6  2  0  0  0  0
  5  4  1  0  0  0  0
  6  7  1  0  0  0  0
  7 34  1  0  0  0  0
  7 33  1  0  0  0  0
  7  2  1  0  0  0  0
  8  6  1  0  0  0  0
  9 10  1  0  0  0  0
  9  8  1  0  0  0  0
 10 11  1  6  0  0  0
 10  5  1  0  0  0  0
 11 12  2  0  0  0  0
 13 11  1  0  0  0  0
 14 13  1  0  0  0  0
 14 15  2  0  0  0  0
 15  9  2  0  0  0  0
 16 14  1  0  0  0  0
 17 13  1  0  0  0  0
 18 36  1  0  0  0  0
 18 17  1  0  0  0  0
 19 18  2  0  0  0  0
 20 21  2  0  0  0  0
 20 19  1  0  0  0  0
 21 22  1  0  0  0  0
 22 38  1  0  0  0  0
 22 17  2  0  0  0  0
 23 21  1  0  0  0  0
 24 40  1  0  0  0  0
 24 20  1  0  0  0  0
 32  4  1  0  0  0  0
 35 16  1  0  0  0  0
 37 19  1  0  0  0  0
 39 24  1  0  0  0  0
 41 24  1  0  0  0  0
M  RAD  1  10   2
M  END
