002-590-338.xyz
 OpenBabel07262113403D
SC1=NC(=O)/C(=C\c2ccc(o2)c2ccc3c(c2)COC3=O)/C(=O)N1
 35 38  0  0  0  0  0  0  0  0999 V2000
    0.0000    0.0000    0.0000 S   0  0  0  0  0  0  0  0  0  0  0  0
    0.0000    0.0000    1.7645 C   0  0  0  0  0  0  0  0  0  0  0  0
    1.0922    0.0000    2.4544 N   0  0  0  0  0  0  0  0  0  0  0  0
    1.0701    0.0002    3.8548 C   0  0  0  0  0  0  0  0  0  0  0  0
    2.1195    0.0043    4.4692 O   0  0  0  0  0  0  0  0  0  0  0  0
   -0.2703   -0.0046    4.5230 C   0  0  0  0  0  0  0  0  0  0  0  0
   -0.5216   -0.0103    5.8731 C   0  0  0  0  0  0  0  0  0  0  0  0
    0.2749   -0.0157    7.0460 C   0  0  0  0  0  0  0  0  0  0  0  0
   -0.1531   -0.0218    8.3750 C   0  0  0  0  0  0  0  0  0  0  0  0
    1.0043   -0.0264    9.1812 C   0  0  0  0  0  0  0  0  0  0  0  0
    2.0840   -0.0230    8.3047 C   0  0  0  0  0  0  0  0  0  0  0  0
    1.6336   -0.0166    7.0386 O   0  0  0  0  0  0  0  0  0  0  0  0
    3.5282   -0.0243    8.4750 C   0  0  0  0  0  0  0  0  0  0  0  0
    4.3545   -0.0158    7.3230 C   0  0  0  0  0  0  0  0  0  0  0  0
    5.7407   -0.0168    7.4507 C   0  0  0  0  0  0  0  0  0  0  0  0
    6.2844   -0.0265    8.7357 C   0  0  0  0  0  0  0  0  0  0  0  0
    7.7061   -0.0299    9.1617 C   0  0  0  0  0  0  0  0  0  0  0  0
    8.7081   -0.0249    8.5048 O   0  0  0  0  0  0  0  0  0  0  0  0
    7.7140   -0.0406   10.5353 O   0  0  0  0  0  0  0  0  0  0  0  0
    6.3911   -0.0447   11.0731 C   0  0  0  0  0  0  0  0  0  0  0  0
    5.4797   -0.0351    9.8742 C   0  0  0  0  0  0  0  0  0  0  0  0
    4.0957   -0.0341    9.7658 C   0  0  0  0  0  0  0  0  0  0  0  0
   -1.5009   -0.0028    3.6883 C   0  0  0  0  0  0  0  0  0  0  0  0
   -2.6443   -0.0038    4.1039 O   0  0  0  0  0  0  0  0  0  0  0  0
   -1.2612   -0.0000    2.3134 N   0  0  0  0  0  0  0  0  0  0  0  0
    2.3112    0.0006   -0.2458 Au  0  0  0  0  0  0  0  0  0  0  0  0
   -1.5916   -0.0117    6.1080 H   0  0  0  0  0  0  0  0  0  0  0  0
   -1.1904   -0.0227    8.7031 H   0  0  0  0  0  0  0  0  0  0  0  0
    1.0508   -0.0314   10.2670 H   0  0  0  0  0  0  0  0  0  0  0  0
    3.8812   -0.0083    6.3388 H   0  0  0  0  0  0  0  0  0  0  0  0
    6.3933   -0.0102    6.5755 H   0  0  0  0  0  0  0  0  0  0  0  0
    6.2605   -0.9429   11.7003 H   0  0  0  0  0  0  0  0  0  0  0  0
    6.2608    0.8434   11.7146 H   0  0  0  0  0  0  0  0  0  0  0  0
    3.4576   -0.0410   10.6520 H   0  0  0  0  0  0  0  0  0  0  0  0
   -2.0859    0.0008    1.7205 H   0  0  0  0  0  0  0  0  0  0  0  0
  1  2  1  0  0  0  0
  2 25  1  0  0  0  0
  2  3  2  0  0  0  0
  3  4  2  0  0  0  0
  4  5  2  0  0  0  0
  4  6  1  0  0  0  0
  6  7  2  0  0  0  0
  7 27  1  0  0  0  0
  7  8  1  0  0  0  0
  8  9  2  0  0  0  0
  9 28  1  0  0  0  0
  9 10  1  0  0  0  0
 10 29  1  0  0  0  0
 11 13  1  0  0  0  0
 11 10  2  0  0  0  0
 12  8  1  0  0  0  0
 12 11  1  0  0  0  0
 13 22  2  0  0  0  0
 14 15  2  0  0  0  0
 14 13  1  0  0  0  0
 15 16  1  0  0  0  0
 16 17  1  0  0  0  0
 16 21  2  0  0  0  0
 17 19  1  0  0  0  0
 18 17  2  0  0  0  0
 19 20  1  0  0  0  0
 20 32  1  0  0  0  0
 20 33  1  0  0  0  0
 21 20  1  0  0  0  0
 22 21  1  0  0  0  0
 22 34  1  0  0  0  0
 23 24  2  0  0  0  0
 23  6  1  0  0  0  0
 25 23  1  0  0  0  0
 26  1  1  0  0  0  0
 30 14  1  0  0  0  0
 31 15  1  0  0  0  0
 35 25  1  0  0  0  0
M  END
