002-915-009.xyz
 OpenBabel07262113403D
Brc1ccc(cc1)n1c(S)nnc1c1ccc(cc1)n1c(C)ccc1C
 43 46  0  0  0  0  0  0  0  0999 V2000
    3.8746    2.4754    8.8766 C   0  0  0  0  0  0  0  0  0  0  0  0
    4.2839    1.0967    9.2787 C   0  0  0  0  0  0  0  0  0  0  0  0
    5.0167    0.6615   10.3644 C   0  0  0  0  0  0  0  0  0  0  0  0
    5.0804   -0.7638   10.3100 C   0  0  0  0  0  0  0  0  0  0  0  0
    4.3778   -1.1789    9.1969 C   0  0  0  0  0  0  0  0  0  0  0  0
    4.1621   -2.5488    8.6432 C   0  0  0  0  0  0  0  0  0  0  0  0
    3.8934   -0.0351    8.5673 N   0  0  0  0  0  0  0  0  0  0  0  0
    3.1187   -0.0251    7.3786 C   0  0  0  0  0  0  0  0  0  0  0  0
    1.8247   -0.5644    7.3723 C   0  0  0  0  0  0  0  0  0  0  0  0
    1.0713   -0.5692    6.2030 C   0  0  0  0  0  0  0  0  0  0  0  0
    1.5890   -0.0216    5.0141 C   0  0  0  0  0  0  0  0  0  0  0  0
    2.8777    0.5404    5.0333 C   0  0  0  0  0  0  0  0  0  0  0  0
    3.6373    0.5274    6.2018 C   0  0  0  0  0  0  0  0  0  0  0  0
    0.7337   -0.0259    3.8230 C   0  0  0  0  0  0  0  0  0  0  0  0
   -0.5801   -0.0410    3.8456 N   0  0  0  0  0  0  0  0  0  0  0  0
   -1.0418   -0.0249    2.5633 N   0  0  0  0  0  0  0  0  0  0  0  0
   -0.0000    0.0000    1.7551 C   0  0  0  0  0  0  0  0  0  0  0  0
    0.0000    0.0000    0.0000 S   0  0  0  0  0  0  0  0  0  0  0  0
    1.1635   -0.0000    2.4971 N   0  0  0  0  0  0  0  0  0  0  0  0
    2.4856   -0.1098    1.9800 C   0  0  0  0  0  0  0  0  0  0  0  0
    3.2522   -1.2433    2.2687 C   0  0  0  0  0  0  0  0  0  0  0  0
    4.5532   -1.3476    1.7790 C   0  0  0  0  0  0  0  0  0  0  0  0
    5.0726   -0.3187    0.9870 C   0  0  0  0  0  0  0  0  0  0  0  0
    6.8455   -0.4588    0.3142 Br  0  0  0  0  0  0  0  0  0  0  0  0
    4.3071    0.8101    0.6816 C   0  0  0  0  0  0  0  0  0  0  0  0
    3.0105    0.9149    1.1864 C   0  0  0  0  0  0  0  0  0  0  0  0
    2.7827    2.5580    8.7424 H   0  0  0  0  0  0  0  0  0  0  0  0
    4.3380    2.8028    7.9304 H   0  0  0  0  0  0  0  0  0  0  0  0
    4.1749    3.1875    9.6578 H   0  0  0  0  0  0  0  0  0  0  0  0
    5.4520    1.3081   11.1242 H   0  0  0  0  0  0  0  0  0  0  0  0
    5.5942   -1.4236   11.0067 H   0  0  0  0  0  0  0  0  0  0  0  0
    3.1050   -2.8631    8.6731 H   0  0  0  0  0  0  0  0  0  0  0  0
    4.4875   -2.6238    7.5916 H   0  0  0  0  0  0  0  0  0  0  0  0
    4.7421   -3.2750    9.2296 H   0  0  0  0  0  0  0  0  0  0  0  0
    1.4145   -0.9732    8.2972 H   0  0  0  0  0  0  0  0  0  0  0  0
    0.0624   -0.9833    6.1902 H   0  0  0  0  0  0  0  0  0  0  0  0
    3.2953    0.9975    4.1371 H   0  0  0  0  0  0  0  0  0  0  0  0
    4.6452    0.9455    6.2087 H   0  0  0  0  0  0  0  0  0  0  0  0
   -2.3089   -0.0859   -0.2159 Au  0  0  0  0  0  0  0  0  0  0  0  0
    2.8283   -2.0377    2.8846 H   0  0  0  0  0  0  0  0  0  0  0  0
    5.1593   -2.2256    2.0049 H   0  0  0  0  0  0  0  0  0  0  0  0
    4.7230    1.6042    0.0605 H   0  0  0  0  0  0  0  0  0  0  0  0
    2.4018    1.7932    0.9666 H   0  0  0  0  0  0  0  0  0  0  0  0
  1  2  1  0  0  0  0
  1 29  1  0  0  0  0
  2  3  2  0  0  0  0
  3 30  1  0  0  0  0
  4  3  1  0  0  0  0
  4 31  1  0  0  0  0
  5  4  2  0  0  0  0
  6 32  1  0  0  0  0
  6  5  1  0  0  0  0
  6 34  1  0  0  0  0
  7  5  1  0  0  0  0
  7  2  1  0  0  0  0
  8  7  1  0  0  0  0
  9  8  1  0  0  0  0
  9 35  1  0  0  0  0
 10  9  2  0  0  0  0
 11 12  2  0  0  0  0
 11 10  1  0  0  0  0
 12 13  1  0  0  0  0
 13 38  1  0  0  0  0
 13  8  2  0  0  0  0
 14 15  2  0  0  0  0
 14 11  1  0  0  0  0
 16 15  1  0  0  0  0
 17 19  1  0  0  0  0
 17 16  2  0  0  0  0
 18 17  1  0  0  0  0
 19 14  1  0  0  0  0
 20 21  1  0  0  0  0
 20 19  1  0  0  0  0
 21 40  1  0  0  0  0
 22 41  1  0  0  0  0
 22 21  2  0  0  0  0
 23 22  1  0  0  0  0
 24 23  1  0  0  0  0
 25 23  2  0  0  0  0
 25 26  1  0  0  0  0
 26 20  2  0  0  0  0
 27  1  1  0  0  0  0
 28  1  1  0  0  0  0
 33  6  1  0  0  0  0
 36 10  1  0  0  0  0
 37 12  1  0  0  0  0
 39 18  1  0  0  0  0
 42 25  1  0  0  0  0
 43 26  1  0  0  0  0
M  END
