002-776-234.xyz
 OpenBabel07262113403D
Clc1ccc(cc1Cl)c1cc(c2c(n1)n(C)c(nc2=O)S)C(F)(F)F
 33 35  0  0  1  0  0  0  0  0999 V2000
   -2.4666   -0.0494    1.5588 C   0  0  0  0  0  0  0  0  0  0  0  0
   -1.2450    0.0082    2.3639 N   0  0  0  0  0  0  0  0  0  0  0  0
    0.0000    0.0000    1.7735 C   0  0  0  0  0  0  0  0  0  0  0  0
    0.0000    0.0000    0.0000 S   0  0  0  0  0  0  0  0  0  0  0  0
    1.1226    0.0000    2.4238 N   0  0  0  0  0  0  0  0  0  0  0  0
    1.1837    0.0006    3.8114 C   0  0  0  0  0  0  0  0  0  0  0  0
    2.2424   -0.1082    4.3957 O   0  0  0  0  0  0  0  0  0  0  0  0
   -0.1259    0.1488    4.5167 C   0  0  2  0  0  0  0  0  0  0  0  0
   -0.2837    0.2957    5.9123 C   0  0  0  0  0  0  0  0  0  0  0  0
   -1.5625    0.3872    6.4499 C   0  0  0  0  0  0  0  0  0  0  0  0
   -2.6846    0.3282    5.6030 C   0  0  0  0  0  0  0  0  0  0  0  0
   -2.5394    0.2084    4.2828 N   0  0  0  0  0  0  0  0  0  0  0  0
   -1.3218    0.1251    3.7558 C   0  0  0  0  0  0  0  0  0  0  0  0
   -4.0700    0.4136    6.1281 C   0  0  0  0  0  0  0  0  0  0  0  0
   -4.3608    0.3061    7.4991 C   0  0  0  0  0  0  0  0  0  0  0  0
   -5.6727    0.3884    7.9558 C   0  0  0  0  0  0  0  0  0  0  0  0
   -6.7266    0.5828    7.0570 C   0  0  0  0  0  0  0  0  0  0  0  0
   -8.3509    0.6845    7.6543 Cl  0  0  0  0  0  0  0  0  0  0  0  0
   -6.4483    0.6903    5.6830 C   0  0  0  0  0  0  0  0  0  0  0  0
   -7.7263    0.9333    4.5307 Cl  0  0  0  0  0  0  0  0  0  0  0  0
   -5.1330    0.6033    5.2319 C   0  0  0  0  0  0  0  0  0  0  0  0
    0.8910    0.3759    6.8875 C   0  0  0  0  0  0  0  0  0  0  0  0
    0.4356    0.6144    8.1413 F   0  0  0  0  0  0  0  0  0  0  0  0
    1.5713   -0.7682    6.9477 F   0  0  0  0  0  0  0  0  0  0  0  0
    1.7174    1.3790    6.5921 F   0  0  0  0  0  0  0  0  0  0  0  0
   -3.3111   -0.2144    2.2329 H   0  0  0  0  0  0  0  0  0  0  0  0
   -2.3926   -0.8756    0.8388 H   0  0  0  0  0  0  0  0  0  0  0  0
   -2.6149    0.8933    1.0103 H   0  0  0  0  0  0  0  0  0  0  0  0
    2.3150   -0.0491   -0.2263 Au  0  0  0  0  0  0  0  0  0  0  0  0
   -1.6809    0.5201    7.5207 H   0  0  0  0  0  0  0  0  0  0  0  0
   -3.5666    0.1399    8.2268 H   0  0  0  0  0  0  0  0  0  0  0  0
   -5.8985    0.2988    9.0190 H   0  0  0  0  0  0  0  0  0  0  0  0
   -4.9251    0.6890    4.1670 H   0  0  0  0  0  0  0  0  0  0  0  0
  1 26  1  0  0  0  0
  1  2  1  0  0  0  0
  2 13  1  0  0  0  0
  3  2  1  0  0  0  0
  3  5  2  0  0  0  0
  4  3  1  0  0  0  0
  5  6  2  0  0  0  0
  6  7  2  0  0  0  0
  6  8  1  0  0  0  0
  8 13  1  1  0  0  0
  8  9  1  0  0  0  0
  9 10  2  0  0  0  0
  9 22  1  0  0  0  0
 10 30  1  0  0  0  0
 11 14  1  0  0  0  0
 11 10  1  0  0  0  0
 12 11  2  0  0  0  0
 13 12  2  0  0  0  0
 14 15  2  0  0  0  0
 15 16  1  0  0  0  0
 15 31  1  0  0  0  0
 16 32  1  0  0  0  0
 17 18  1  0  0  0  0
 17 16  2  0  0  0  0
 19 17  1  0  0  0  0
 20 19  1  0  0  0  0
 21 19  2  0  0  0  0
 21 14  1  0  0  0  0
 22 24  1  0  0  0  0
 22 23  1  0  0  0  0
 25 22  1  0  0  0  0
 27  1  1  0  0  0  0
 28  1  1  0  0  0  0
 29  4  1  0  0  0  0
 33 21  1  0  0  0  0
M  RAD  1   8   2
M  END
