002-468-842.xyz
 OpenBabel07262113403D
N#Cc1c(N)cc(nc1S)N
 17 17  0  0  1  0  0  0  0  0999 V2000
   -3.5460    0.0005    1.2005 N   0  0  0  0  0  0  0  0  0  0  0  0
   -2.4933    0.0030    1.6984 C   0  0  0  0  0  0  0  0  0  0  0  0
   -1.2638    0.0055    2.4115 C   0  0  1  0  0  0  0  0  0  0  0  0
   -1.2974    0.0105    3.8410 C   0  0  0  0  0  0  0  0  0  0  0  0
   -2.4880    0.0242    4.4912 N   0  0  0  0  0  0  0  0  0  0  0  0
   -0.0760    0.0067    4.5258 C   0  0  0  0  0  0  0  0  0  0  0  0
    1.1177   -0.0004    3.7854 C   0  0  0  0  0  0  0  0  0  0  0  0
    1.1487    0.0000    2.4385 N   0  0  0  0  0  0  0  0  0  0  0  0
   -0.0000   -0.0000    1.7722 C   0  0  0  0  0  0  0  0  0  0  0  0
    0.0000    0.0000    0.0000 S   0  0  0  0  0  0  0  0  0  0  0  0
    2.3347   -0.0340    4.4037 N   0  0  0  0  0  0  0  0  0  0  0  0
   -2.5256   -0.0202    5.4985 H   0  0  0  0  0  0  0  0  0  0  0  0
   -3.3557   -0.0104    3.9715 H   0  0  0  0  0  0  0  0  0  0  0  0
   -0.0542    0.0044    5.6172 H   0  0  0  0  0  0  0  0  0  0  0  0
    2.2727   -0.0609   -0.3983 Au  0  0  0  0  0  0  0  0  0  0  0  0
    2.4067    0.1765    5.3888 H   0  0  0  0  0  0  0  0  0  0  0  0
    3.1473    0.1283    3.8232 H   0  0  0  0  0  0  0  0  0  0  0  0
  1  2  3  0  0  0  0
  3  2  1  1  0  0  0
  3  4  1  0  0  0  0
  4  5  1  0  0  0  0
  4  6  2  0  0  0  0
  5 12  1  0  0  0  0
  6 14  1  0  0  0  0
  7 11  1  0  0  0  0
  7  6  1  0  0  0  0
  8  7  2  0  0  0  0
  9  3  1  0  0  0  0
  9  8  2  0  0  0  0
 10  9  1  0  0  0  0
 11 16  1  0  0  0  0
 13  5  1  0  0  0  0
 15 10  1  0  0  0  0
 17 11  1  0  0  0  0
M  RAD  1   3   2
M  END
