002-468-561.xyz
 OpenBabel07262113403D
Sc1nc(nc2c1cccc2)C(F)(F)F
 20 21  0  0  1  0  0  0  0  0999 V2000
    3.3936   -1.0851    3.6867 F   0  0  0  0  0  0  0  0  0  0  0  0
    2.7101   -0.0579    4.2125 C   0  0  0  0  0  0  0  0  0  0  0  0
    2.7419   -0.1749    5.5397 F   0  0  0  0  0  0  0  0  0  0  0  0
    3.3517    1.0730    3.8790 F   0  0  0  0  0  0  0  0  0  0  0  0
    1.2823   -0.0383    3.6752 C   0  0  0  0  0  0  0  0  0  0  0  0
    1.1966   -0.0000    2.3282 N   0  0  0  0  0  0  0  0  0  0  0  0
   -0.0000    0.0000    1.7855 C   0  0  0  0  0  0  0  0  0  0  0  0
    0.0000    0.0000    0.0000 S   0  0  0  0  0  0  0  0  0  0  0  0
   -1.1856   -0.0785    2.5979 C   0  0  1  0  0  0  0  0  0  0  0  0
   -2.5124   -0.1950    2.1159 C   0  0  0  0  0  0  0  0  0  0  0  0
   -3.5744   -0.2181    2.9991 C   0  0  0  0  0  0  0  0  0  0  0  0
   -3.3537   -0.1350    4.3956 C   0  0  0  0  0  0  0  0  0  0  0  0
   -2.0711   -0.0558    4.8961 C   0  0  0  0  0  0  0  0  0  0  0  0
   -0.9612   -0.0427    4.0117 C   0  0  0  0  0  0  0  0  0  0  0  0
    0.2977   -0.0196    4.5324 N   0  0  0  0  0  0  0  0  0  0  0  0
   -1.4388    1.7181   -0.5387 Au  0  0  0  0  0  0  0  0  0  0  0  0
   -2.6825   -0.2851    1.0433 H   0  0  0  0  0  0  0  0  0  0  0  0
   -4.5940   -0.3113    2.6186 H   0  0  0  0  0  0  0  0  0  0  0  0
   -4.2067   -0.1498    5.0779 H   0  0  0  0  0  0  0  0  0  0  0  0
   -1.8643   -0.0130    5.9664 H   0  0  0  0  0  0  0  0  0  0  0  0
  1  2  1  0  0  0  0
  2  3  1  0  0  0  0
  4  2  1  0  0  0  0
  5  2  1  0  0  0  0
  5 15  2  0  0  0  0
  6  5  2  0  0  0  0
  7  6  2  0  0  0  0
  8  7  1  0  0  0  0
  9  7  1  1  0  0  0
  9 14  1  0  0  0  0
 10  9  1  0  0  0  0
 10 11  2  0  0  0  0
 11 12  1  0  0  0  0
 12 13  2  0  0  0  0
 12 19  1  0  0  0  0
 13 20  1  0  0  0  0
 14 15  2  0  0  0  0
 14 13  1  0  0  0  0
 16  8  1  0  0  0  0
 17 10  1  0  0  0  0
 18 11  1  0  0  0  0
M  RAD  1   9   2
M  END
