002-465-895.xyz
 OpenBabel07262113393D
Clc1ccc2c(c1)nc(n(c2=O)C1CCCCC1)S
 34 36  0  0  1  0  0  0  0  0999 V2000
    0.0000    0.0000    0.0000 S   0  0  0  0  0  0  0  0  0  0  0  0
   -0.0000   -0.0000    1.7835 C   0  0  0  0  0  0  0  0  0  0  0  0
    1.1333   -0.0000    2.4179 N   0  0  0  0  0  0  0  0  0  0  0  0
    1.1314    0.0263    3.7914 C   0  0  0  0  0  0  0  0  0  0  0  0
    2.3598    0.0104    4.4867 C   0  0  0  0  0  0  0  0  0  0  0  0
    2.3554    0.0465    5.8729 C   0  0  0  0  0  0  0  0  0  0  0  0
    3.8736    0.0262    6.7345 Cl  0  0  0  0  0  0  0  0  0  0  0  0
    1.1565    0.1007    6.6121 C   0  0  0  0  0  0  0  0  0  0  0  0
   -0.0500    0.1176    5.9307 C   0  0  0  0  0  0  0  0  0  0  0  0
   -0.0737    0.0781    4.5260 C   0  0  1  0  0  0  0  0  0  0  0  0
   -1.3487    0.0919    3.8088 C   0  0  0  0  0  0  0  0  0  0  0  0
   -2.4413    0.1582    4.3473 O   0  0  0  0  0  0  0  0  0  0  0  0
   -1.2394    0.0133    2.4006 N   0  0  0  0  0  0  0  0  0  0  0  0
   -2.4988    0.0124    1.6133 C   0  0  0  0  0  0  0  0  0  0  0  0
   -3.1849    1.3842    1.6340 C   0  0  0  0  0  0  0  0  0  0  0  0
   -4.4978    1.3037    0.8489 C   0  0  0  0  0  0  0  0  0  0  0  0
   -5.4917    0.2836    1.4629 C   0  0  0  0  0  0  0  0  0  0  0  0
   -4.8190   -0.6600    2.4727 C   0  0  0  0  0  0  0  0  0  0  0  0
   -3.4580   -1.1545    1.9791 C   0  0  0  0  0  0  0  0  0  0  0  0
    2.2947   -0.0243   -0.3154 Au  0  0  0  0  0  0  0  0  0  0  0  0
    3.2911   -0.0285    3.9229 H   0  0  0  0  0  0  0  0  0  0  0  0
    1.1949    0.1285    7.7013 H   0  0  0  0  0  0  0  0  0  0  0  0
   -1.0021    0.1595    6.4625 H   0  0  0  0  0  0  0  0  0  0  0  0
   -2.1759   -0.1579    0.5784 H   0  0  0  0  0  0  0  0  0  0  0  0
   -3.3737    1.6916    2.6717 H   0  0  0  0  0  0  0  0  0  0  0  0
   -2.5071    2.1270    1.1842 H   0  0  0  0  0  0  0  0  0  0  0  0
   -4.2615    1.0176   -0.1910 H   0  0  0  0  0  0  0  0  0  0  0  0
   -4.9553    2.3032    0.7890 H   0  0  0  0  0  0  0  0  0  0  0  0
   -6.3187    0.8120    1.9641 H   0  0  0  0  0  0  0  0  0  0  0  0
   -5.9542   -0.3066    0.6541 H   0  0  0  0  0  0  0  0  0  0  0  0
   -4.6648   -0.1449    3.4306 H   0  0  0  0  0  0  0  0  0  0  0  0
   -5.4751   -1.5213    2.6778 H   0  0  0  0  0  0  0  0  0  0  0  0
   -3.5970   -1.7757    1.0781 H   0  0  0  0  0  0  0  0  0  0  0  0
   -2.9929   -1.8029    2.7337 H   0  0  0  0  0  0  0  0  0  0  0  0
  1  2  1  0  0  0  0
  2 13  1  0  0  0  0
  2  3  2  0  0  0  0
  3  4  2  0  0  0  0
  4  5  1  0  0  0  0
  5  6  2  0  0  0  0
  6  8  1  0  0  0  0
  6  7  1  0  0  0  0
  8 22  1  0  0  0  0
  9 23  1  0  0  0  0
  9  8  2  0  0  0  0
 10  4  1  6  0  0  0
 10  9  1  0  0  0  0
 11 12  2  0  0  0  0
 11 10  1  0  0  0  0
 13 11  1  0  0  0  0
 14 15  1  0  0  0  0
 14 19  1  0  0  0  0
 14 13  1  0  0  0  0
 15 25  1  0  0  0  0
 16 17  1  0  0  0  0
 16 15  1  0  0  0  0
 17 29  1  0  0  0  0
 17 18  1  0  0  0  0
 18 32  1  0  0  0  0
 18 31  1  0  0  0  0
 19 18  1  0  0  0  0
 19 34  1  0  0  0  0
 20  1  1  0  0  0  0
 21  5  1  0  0  0  0
 24 14  1  0  0  0  0
 26 15  1  0  0  0  0
 27 16  1  0  0  0  0
 28 16  1  0  0  0  0
 30 17  1  0  0  0  0
 33 19  1  0  0  0  0
M  RAD  1  10   2
M  END
