002-923-461.xyz
 OpenBabel07262113403D
FC(c1cc(cc(c1)C(F)(F)F)c1[nH]nc(n1)S)(F)F
 25 26  0  0  0  0  0  0  0  0999 V2000
    0.8485   -1.3407    9.2279 F   0  0  0  0  0  0  0  0  0  0  0  0
    0.9578   -0.0690    8.8048 C   0  0  0  0  0  0  0  0  0  0  0  0
    1.6702    0.5962    9.7267 F   0  0  0  0  0  0  0  0  0  0  0  0
   -0.2820    0.4510    8.7896 F   0  0  0  0  0  0  0  0  0  0  0  0
    1.6067    0.0004    7.4435 C   0  0  0  0  0  0  0  0  0  0  0  0
    0.8132    0.0025    6.2957 C   0  0  0  0  0  0  0  0  0  0  0  0
    1.4073    0.0048    5.0253 C   0  0  0  0  0  0  0  0  0  0  0  0
    2.8076    0.0080    4.9256 C   0  0  0  0  0  0  0  0  0  0  0  0
    3.5918    0.0141    6.0775 C   0  0  0  0  0  0  0  0  0  0  0  0
    2.9995    0.0083    7.3434 C   0  0  0  0  0  0  0  0  0  0  0  0
    5.0958    0.0842    5.9580 C   0  0  0  0  0  0  0  0  0  0  0  0
    5.5317   -0.5014    4.8320 F   0  0  0  0  0  0  0  0  0  0  0  0
    5.7019   -0.5168    6.9949 F   0  0  0  0  0  0  0  0  0  0  0  0
    5.5217    1.3597    5.9343 F   0  0  0  0  0  0  0  0  0  0  0  0
    0.6169    0.0040    3.7933 C   0  0  0  0  0  0  0  0  0  0  0  0
    1.1082    0.0000    2.5595 N   0  0  0  0  0  0  0  0  0  0  0  0
    0.0000    0.0000    1.7642 C   0  0  0  0  0  0  0  0  0  0  0  0
    0.0000    0.0000    0.0000 S   0  0  0  0  0  0  0  0  0  0  0  0
   -1.1493    0.0038    2.4344 N   0  0  0  0  0  0  0  0  0  0  0  0
   -0.7378    0.0071    3.7195 N   0  0  0  0  0  0  0  0  0  0  0  0
   -0.2713    0.0067    6.4110 H   0  0  0  0  0  0  0  0  0  0  0  0
    3.2625    0.0041    3.9353 H   0  0  0  0  0  0  0  0  0  0  0  0
    3.6168    0.0096    8.2418 H   0  0  0  0  0  0  0  0  0  0  0  0
    2.2697   -0.0630   -0.3885 Au  0  0  0  0  0  0  0  0  0  0  0  0
   -1.4253    0.0115    4.4635 H   0  0  0  0  0  0  0  0  0  0  0  0
  2  1  1  0  0  0  0
  2  3  1  0  0  0  0
  4  2  1  0  0  0  0
  5  2  1  0  0  0  0
  6 21  1  0  0  0  0
  6  5  2  0  0  0  0
  7  6  1  0  0  0  0
  8  7  2  0  0  0  0
  8  9  1  0  0  0  0
  9 10  2  0  0  0  0
 10  5  1  0  0  0  0
 10 23  1  0  0  0  0
 11  9  1  0  0  0  0
 11 13  1  0  0  0  0
 12 11  1  0  0  0  0
 14 11  1  0  0  0  0
 15  7  1  0  0  0  0
 16 15  2  0  0  0  0
 17 19  2  0  0  0  0
 17 16  2  0  0  0  0
 18 17  1  0  0  0  0
 19 20  1  0  0  0  0
 20 15  1  0  0  0  0
 20 25  1  0  0  0  0
 22  8  1  0  0  0  0
 24 18  1  0  0  0  0
M  END
