002-466-822.xyz
 OpenBabel07262113393D
Clc1ccc(cc1)n1c(S)nc2c(c1=O)ccc(c2)Cl
 28 30  0  0  1  0  0  0  0  0999 V2000
    0.0000    0.0000    0.0000 S   0  0  0  0  0  0  0  0  0  0  0  0
    0.0000    0.0000    1.7752 C   0  0  0  0  0  0  0  0  0  0  0  0
   -1.0961   -0.0001    2.4643 N   0  0  0  0  0  0  0  0  0  0  0  0
   -1.0134   -0.0003    3.8401 C   0  0  0  0  0  0  0  0  0  0  0  0
   -2.2039   -0.0004    4.5968 C   0  0  0  0  0  0  0  0  0  0  0  0
   -2.1320   -0.0007    5.9824 C   0  0  0  0  0  0  0  0  0  0  0  0
   -3.6069   -0.0008    6.9153 Cl  0  0  0  0  0  0  0  0  0  0  0  0
   -0.8984   -0.0009    6.6623 C   0  0  0  0  0  0  0  0  0  0  0  0
    0.2734   -0.0008    5.9218 C   0  0  0  0  0  0  0  0  0  0  0  0
    0.2293   -0.0005    4.5176 C   0  0  1  0  0  0  0  0  0  0  0  0
    1.4736   -0.0003    3.7450 C   0  0  0  0  0  0  0  0  0  0  0  0
    2.5988   -0.0005    4.2007 O   0  0  0  0  0  0  0  0  0  0  0  0
    1.2673    0.0000    2.3378 N   0  0  0  0  0  0  0  0  0  0  0  0
    2.4383    0.0001    1.5025 C   0  0  0  0  0  0  0  0  0  0  0  0
    3.0088   -1.2125    1.1076 C   0  0  0  0  0  0  0  0  0  0  0  0
    4.1415   -1.2171    0.2962 C   0  0  0  0  0  0  0  0  0  0  0  0
    4.6978    0.0004   -0.1078 C   0  0  0  0  0  0  0  0  0  0  0  0
    6.1137    0.0005   -1.1259 Cl  0  0  0  0  0  0  0  0  0  0  0  0
    4.1387    1.2178    0.2926 C   0  0  0  0  0  0  0  0  0  0  0  0
    3.0060    1.2129    1.1041 C   0  0  0  0  0  0  0  0  0  0  0  0
   -2.2906   -0.0012   -0.3303 Au  0  0  0  0  0  0  0  0  0  0  0  0
   -3.1623   -0.0003    4.0788 H   0  0  0  0  0  0  0  0  0  0  0  0
   -0.8821   -0.0012    7.7524 H   0  0  0  0  0  0  0  0  0  0  0  0
    1.2509   -0.0009    6.4075 H   0  0  0  0  0  0  0  0  0  0  0  0
    2.5581   -2.1505    1.4351 H   0  0  0  0  0  0  0  0  0  0  0  0
    4.5966   -2.1549   -0.0238 H   0  0  0  0  0  0  0  0  0  0  0  0
    4.5915    2.1557   -0.0303 H   0  0  0  0  0  0  0  0  0  0  0  0
    2.5530    2.1509    1.4287 H   0  0  0  0  0  0  0  0  0  0  0  0
  1  2  1  0  0  0  0
  2 13  1  0  0  0  0
  2  3  2  0  0  0  0
  3  4  2  0  0  0  0
  4 10  1  0  0  0  0
  4  5  1  0  0  0  0
  5  6  2  0  0  0  0
  6  8  1  0  0  0  0
  6  7  1  0  0  0  0
  8 23  1  0  0  0  0
  9 24  1  0  0  0  0
  9  8  2  0  0  0  0
 10 11  1  6  0  0  0
 10  9  1  0  0  0  0
 11 12  2  0  0  0  0
 13 11  1  0  0  0  0
 14 13  1  0  0  0  0
 15 25  1  0  0  0  0
 15 14  1  0  0  0  0
 16 15  2  0  0  0  0
 17 19  2  0  0  0  0
 17 16  1  0  0  0  0
 18 17  1  0  0  0  0
 19 20  1  0  0  0  0
 20 28  1  0  0  0  0
 20 14  2  0  0  0  0
 21  1  1  0  0  0  0
 22  5  1  0  0  0  0
 26 16  1  0  0  0  0
 27 19  1  0  0  0  0
M  RAD  1  10   2
M  END
