002-937-821.xyz
 OpenBabel07262113403D
CC(OC(=O)C1=C(C)N=C(NC1c1ccccc1Cl)S)C
 38 39  0  0  1  0  0  0  0  0999 V2000
   -0.0362    1.8462    8.4437 C   0  0  0  0  0  0  0  0  0  0  0  0
    0.4870    0.4558    8.1084 C   0  0  0  0  0  0  0  0  0  0  0  0
    1.8367    0.1477    8.7342 C   0  0  0  0  0  0  0  0  0  0  0  0
    0.6676    0.3330    6.6800 O   0  0  0  0  0  0  0  0  0  0  0  0
   -0.4227    0.0472    5.9341 C   0  0  0  0  0  0  0  0  0  0  0  0
   -1.5267   -0.1151    6.4236 O   0  0  0  0  0  0  0  0  0  0  0  0
   -0.1691   -0.0639    4.4947 C   0  0  1  0  0  0  0  0  0  0  0  0
    1.0230    0.1141    3.8329 C   0  0  0  0  0  0  0  0  0  0  0  0
    2.3328    0.4622    4.4915 C   0  0  0  0  0  0  0  0  0  0  0  0
    1.1116    0.0000    2.4580 N   0  0  0  0  0  0  0  0  0  0  0  0
   -0.0000   -0.0000    1.7670 C   0  0  0  0  0  0  0  0  0  0  0  0
    0.0000    0.0000    0.0000 S   0  0  0  0  0  0  0  0  0  0  0  0
   -1.2250    0.0274    2.3344 N   0  0  0  0  0  0  0  0  0  0  0  0
   -1.3893   -0.4759    3.7013 C   0  0  1  0  0  0  0  0  0  0  0  0
   -1.6600   -1.9830    3.6922 C   0  0  0  0  0  0  0  0  0  0  0  0
   -0.7041   -2.9092    4.1235 C   0  0  0  0  0  0  0  0  0  0  0  0
   -0.9528   -4.2829    4.0902 C   0  0  0  0  0  0  0  0  0  0  0  0
   -2.1776   -4.7583    3.6180 C   0  0  0  0  0  0  0  0  0  0  0  0
   -3.1498   -3.8583    3.1763 C   0  0  0  0  0  0  0  0  0  0  0  0
   -2.8786   -2.4908    3.2165 C   0  0  0  0  0  0  0  0  0  0  0  0
   -4.1204   -1.3825    2.6348 Cl  0  0  0  0  0  0  0  0  0  0  0  0
   -1.0138    2.0112    7.9701 H   0  0  0  0  0  0  0  0  0  0  0  0
   -0.1583    1.9550    9.5329 H   0  0  0  0  0  0  0  0  0  0  0  0
    0.6679    2.6183    8.0942 H   0  0  0  0  0  0  0  0  0  0  0  0
   -0.2608   -0.2925    8.4128 H   0  0  0  0  0  0  0  0  0  0  0  0
    1.7674    0.1942    9.8318 H   0  0  0  0  0  0  0  0  0  0  0  0
    2.5947    0.8759    8.4045 H   0  0  0  0  0  0  0  0  0  0  0  0
    2.1776   -0.8591    8.4498 H   0  0  0  0  0  0  0  0  0  0  0  0
    2.6211   -0.2940    5.2352 H   0  0  0  0  0  0  0  0  0  0  0  0
    2.2594    1.4133    5.0376 H   0  0  0  0  0  0  0  0  0  0  0  0
    3.1078    0.5379    3.7188 H   0  0  0  0  0  0  0  0  0  0  0  0
    2.2806    0.2767   -0.2941 Au  0  0  0  0  0  0  0  0  0  0  0  0
   -2.0501    0.0322    1.7442 H   0  0  0  0  0  0  0  0  0  0  0  0
   -2.2729    0.0095    4.1346 H   0  0  0  0  0  0  0  0  0  0  0  0
    0.2499   -2.5331    4.4972 H   0  0  0  0  0  0  0  0  0  0  0  0
   -0.1878   -4.9824    4.4341 H   0  0  0  0  0  0  0  0  0  0  0  0
   -2.3827   -5.8308    3.5897 H   0  0  0  0  0  0  0  0  0  0  0  0
   -4.1138   -4.2056    2.8020 H   0  0  0  0  0  0  0  0  0  0  0  0
  1 23  1  0  0  0  0
  2 25  1  0  0  0  0
  2  1  1  0  0  0  0
  2  3  1  0  0  0  0
  3 26  1  0  0  0  0
  4  2  1  0  0  0  0
  5  6  2  0  0  0  0
  5  4  1  0  0  0  0
  7 14  1  1  0  0  0
  7  5  1  0  0  0  0
  8  9  1  0  0  0  0
  8  7  1  0  0  0  0
  9 30  1  0  0  0  0
  9 29  1  0  0  0  0
 10  8  2  0  0  0  0
 11 13  1  0  0  0  0
 11 10  2  0  0  0  0
 12 11  1  0  0  0  0
 13 14  1  0  0  0  0
 14 34  1  1  0  0  0
 15 14  1  0  0  0  0
 15 16  2  0  0  0  0
 16 35  1  0  0  0  0
 17 16  1  0  0  0  0
 17 36  1  0  0  0  0
 18 17  2  0  0  0  0
 19 20  2  0  0  0  0
 19 18  1  0  0  0  0
 20 15  1  0  0  0  0
 21 20  1  0  0  0  0
 22  1  1  0  0  0  0
 24  1  1  0  0  0  0
 27  3  1  0  0  0  0
 28  3  1  0  0  0  0
 31  9  1  0  0  0  0
 32 12  1  0  0  0  0
 33 13  1  0  0  0  0
 37 18  1  0  0  0  0
 38 19  1  0  0  0  0
M  RAD  1   7   2
M  END
