002-991-606.xyz
 OpenBabel07262113403D
Sc1n[nH]c(=O)n1CC=C
 17 17  0  0  0  0  0  0  0  0999 V2000
    0.0000    0.0000    0.0000 S   0  0  0  0  0  0  0  0  0  0  0  0
    0.0000    0.0000    1.7603 C   0  0  0  0  0  0  0  0  0  0  0  0
    1.0370   -0.0000    2.5497 N   0  0  0  0  0  0  0  0  0  0  0  0
    0.5003   -0.0008    3.8187 N   0  0  0  0  0  0  0  0  0  0  0  0
   -0.8743   -0.0065    3.8422 C   0  0  0  0  0  0  0  0  0  0  0  0
   -1.6506   -0.0101    4.7747 O   0  0  0  0  0  0  0  0  0  0  0  0
   -1.1841    0.0064    2.4673 N   0  0  0  0  0  0  0  0  0  0  0  0
   -2.5502   -0.0689    1.9705 C   0  0  0  0  0  0  0  0  0  0  0  0
   -2.9551   -1.4723    1.6022 C   0  0  0  0  0  0  0  0  0  0  0  0
   -3.8855   -2.1690    2.2566 C   0  0  0  0  0  0  0  0  0  0  0  0
    2.2880    0.0785   -0.3160 Au  0  0  0  0  0  0  0  0  0  0  0  0
    1.1008   -0.0036    4.6318 H   0  0  0  0  0  0  0  0  0  0  0  0
   -2.6340    0.6070    1.1033 H   0  0  0  0  0  0  0  0  0  0  0  0
   -3.1887    0.3175    2.7776 H   0  0  0  0  0  0  0  0  0  0  0  0
   -2.4210   -1.9189    0.7553 H   0  0  0  0  0  0  0  0  0  0  0  0
   -4.4154   -1.7441    3.1152 H   0  0  0  0  0  0  0  0  0  0  0  0
   -4.1473   -3.1892    1.9632 H   0  0  0  0  0  0  0  0  0  0  0  0
  1  2  1  0  0  0  0
  2  7  1  0  0  0  0
  2  3  2  0  0  0  0
  3  4  1  0  0  0  0
  4  5  1  0  0  0  0
  4 12  1  0  0  0  0
  5  6  2  0  0  0  0
  7  5  1  0  0  0  0
  8  7  1  0  0  0  0
  8 14  1  0  0  0  0
  9  8  1  0  0  0  0
  9 10  2  0  0  0  0
 10 16  1  0  0  0  0
 11  1  1  0  0  0  0
 13  8  1  0  0  0  0
 15  9  1  0  0  0  0
 17 10  1  0  0  0  0
M  END
