002-776-247.xyz
 OpenBabel07262113403D
COC(=O)c1cc(nc2c1c(=O)nc(n2C1CC1)S)c1ccc(cc1Cl)Cl
 40 43  0  0  1  0  0  0  0  0999 V2000
    3.0491   -1.9959    6.9040 C   0  0  0  0  0  0  0  0  0  0  0  0
    1.7609   -1.8998    6.2955 O   0  0  0  0  0  0  0  0  0  0  0  0
    0.9984   -0.8800    6.6972 C   0  0  0  0  0  0  0  0  0  0  0  0
    1.2048   -0.1916    7.6633 O   0  0  0  0  0  0  0  0  0  0  0  0
   -0.2233   -0.7462    5.8282 C   0  0  0  0  0  0  0  0  0  0  0  0
   -1.4811   -0.9510    6.3865 C   0  0  0  0  0  0  0  0  0  0  0  0
   -2.6174   -0.8519    5.5618 C   0  0  0  0  0  0  0  0  0  0  0  0
   -2.5160   -0.5770    4.2563 N   0  0  0  0  0  0  0  0  0  0  0  0
   -1.3175   -0.3430    3.7337 C   0  0  0  0  0  0  0  0  0  0  0  0
   -1.2498   -0.0318    2.3667 N   0  0  0  0  0  0  0  0  0  0  0  0
   -2.4670    0.0811    1.5925 C   0  0  0  0  0  0  0  0  0  0  0  0
   -2.7035    1.3266    0.7702 C   0  0  0  0  0  0  0  0  0  0  0  0
   -3.5077    1.0771    2.0110 C   0  0  0  0  0  0  0  0  0  0  0  0
    0.0000   -0.0000    1.7741 C   0  0  0  0  0  0  0  0  0  0  0  0
    0.0000    0.0000    0.0000 S   0  0  0  0  0  0  0  0  0  0  0  0
    1.1234   -0.0000    2.4266 N   0  0  0  0  0  0  0  0  0  0  0  0
    1.1654   -0.0530    3.8128 C   0  0  0  0  0  0  0  0  0  0  0  0
    2.1875    0.1619    4.4403 O   0  0  0  0  0  0  0  0  0  0  0  0
   -0.1187   -0.4023    4.4711 C   0  0  1  0  0  0  0  0  0  0  0  0
   -3.9963   -1.1243    6.0507 C   0  0  0  0  0  0  0  0  0  0  0  0
   -4.8753   -1.8018    5.1844 C   0  0  0  0  0  0  0  0  0  0  0  0
   -6.1798   -2.1185    5.5446 C   0  0  0  0  0  0  0  0  0  0  0  0
   -6.6426   -1.7362    6.8070 C   0  0  0  0  0  0  0  0  0  0  0  0
   -8.2729   -2.1211    7.2871 Cl  0  0  0  0  0  0  0  0  0  0  0  0
   -5.8163   -1.0392    7.6873 C   0  0  0  0  0  0  0  0  0  0  0  0
   -4.5054   -0.7372    7.3063 C   0  0  0  0  0  0  0  0  0  0  0  0
   -3.5638    0.2078    8.4382 Cl  0  0  0  0  0  0  0  0  0  0  0  0
    3.6594   -1.1335    6.5973 H   0  0  0  0  0  0  0  0  0  0  0  0
    2.9671   -2.0137    8.0003 H   0  0  0  0  0  0  0  0  0  0  0  0
    3.4939   -2.9273    6.5339 H   0  0  0  0  0  0  0  0  0  0  0  0
   -1.5732   -1.2042    7.4401 H   0  0  0  0  0  0  0  0  0  0  0  0
   -2.8170   -0.8729    1.1844 H   0  0  0  0  0  0  0  0  0  0  0  0
   -3.1595    1.1897   -0.2131 H   0  0  0  0  0  0  0  0  0  0  0  0
   -1.9378    2.1044    0.8066 H   0  0  0  0  0  0  0  0  0  0  0  0
   -3.2877    1.6846    2.8907 H   0  0  0  0  0  0  0  0  0  0  0  0
   -4.5511    0.7642    1.9306 H   0  0  0  0  0  0  0  0  0  0  0  0
    2.3093   -0.0046   -0.2504 Au  0  0  0  0  0  0  0  0  0  0  0  0
   -4.4971   -2.0804    4.2003 H   0  0  0  0  0  0  0  0  0  0  0  0
   -6.8377   -2.6564    4.8615 H   0  0  0  0  0  0  0  0  0  0  0  0
   -6.1869   -0.7193    8.6603 H   0  0  0  0  0  0  0  0  0  0  0  0
  1 29  1  0  0  0  0
  2  3  1  0  0  0  0
  2  1  1  0  0  0  0
  3  4  2  0  0  0  0
  5  6  2  0  0  0  0
  5  3  1  0  0  0  0
  6 31  1  0  0  0  0
  7 20  1  0  0  0  0
  7  6  1  0  0  0  0
  8  7  2  0  0  0  0
  9  8  2  0  0  0  0
 10  9  1  0  0  0  0
 11 13  1  0  0  0  0
 11 10  1  0  0  0  0
 12 34  1  0  0  0  0
 12 11  1  0  0  0  0
 12 13  1  0  0  0  0
 13 35  1  0  0  0  0
 14 10  1  0  0  0  0
 14 16  2  0  0  0  0
 15 14  1  0  0  0  0
 16 17  2  0  0  0  0
 17 18  2  0  0  0  0
 17 19  1  0  0  0  0
 19  9  1  1  0  0  0
 19  5  1  0  0  0  0
 20 26  2  0  0  0  0
 21 22  2  0  0  0  0
 21 20  1  0  0  0  0
 22 23  1  0  0  0  0
 23 24  1  0  0  0  0
 23 25  2  0  0  0  0
 25 40  1  0  0  0  0
 26 25  1  0  0  0  0
 26 27  1  0  0  0  0
 28  1  1  0  0  0  0
 30  1  1  0  0  0  0
 32 11  1  0  0  0  0
 33 12  1  0  0  0  0
 36 13  1  0  0  0  0
 37 15  1  0  0  0  0
 38 21  1  0  0  0  0
 39 22  1  0  0  0  0
M  RAD  1  19   2
M  END
