002-185-256.xyz
 OpenBabel07262113393D
COc1ccc(cc1)n1c(S)nc2c(c1=O)c1CCc3c(c1s2)cccc3
 43 47  0  0  1  0  0  0  0  0999 V2000
    6.6905   -0.8386   -0.6945 C   0  0  0  0  0  0  0  0  0  0  0  0
    6.1152    0.2727   -0.0416 O   0  0  0  0  0  0  0  0  0  0  0  0
    4.9296    0.1237    0.5887 C   0  0  0  0  0  0  0  0  0  0  0  0
    4.4179    1.2751    1.2215 C   0  0  0  0  0  0  0  0  0  0  0  0
    3.1989    1.2219    1.8929 C   0  0  0  0  0  0  0  0  0  0  0  0
    2.4657    0.0264    1.9235 C   0  0  0  0  0  0  0  0  0  0  0  0
    2.9839   -1.1177    1.3263 C   0  0  0  0  0  0  0  0  0  0  0  0
    4.2098   -1.0784    0.6552 C   0  0  0  0  0  0  0  0  0  0  0  0
    1.1686    0.0000    2.5332 N   0  0  0  0  0  0  0  0  0  0  0  0
   -0.0000   -0.0000    1.7761 C   0  0  0  0  0  0  0  0  0  0  0  0
    0.0000    0.0000    0.0000 S   0  0  0  0  0  0  0  0  0  0  0  0
   -1.1848   -0.0869    2.3127 N   0  0  0  0  0  0  0  0  0  0  0  0
   -1.2508   -0.2042    3.6521 C   0  0  0  0  0  0  0  0  0  0  0  0
   -2.7632   -0.3653    4.5111 S   0  0  0  0  0  0  0  0  0  0  0  0
   -1.9147   -0.3891    6.0486 C   0  0  0  0  0  0  0  0  0  0  0  0
   -0.5459   -0.2688    5.9032 C   0  0  0  0  0  0  0  0  0  0  0  0
    0.3436   -0.3126    7.1155 C   0  0  0  0  0  0  0  0  0  0  0  0
   -0.3916    0.2643    8.3307 C   0  0  0  0  0  0  0  0  0  0  0  0
   -1.7897   -0.2911    8.4985 C   0  0  0  0  0  0  0  0  0  0  0  0
   -2.3649   -0.4810    9.7566 C   0  0  0  0  0  0  0  0  0  0  0  0
   -3.6848   -0.9250    9.8902 C   0  0  0  0  0  0  0  0  0  0  0  0
   -4.4486   -1.1862    8.7497 C   0  0  0  0  0  0  0  0  0  0  0  0
   -3.8889   -1.0109    7.4843 C   0  0  0  0  0  0  0  0  0  0  0  0
   -2.5640   -0.5670    7.3423 C   0  0  0  0  0  0  0  0  0  0  0  0
   -0.1626   -0.1695    4.5311 C   0  0  2  0  0  0  0  0  0  0  0  0
    1.1656   -0.0315    3.9725 C   0  0  0  0  0  0  0  0  0  0  0  0
    2.2159    0.0397    4.5844 O   0  0  0  0  0  0  0  0  0  0  0  0
    7.6344   -0.4893   -1.1322 H   0  0  0  0  0  0  0  0  0  0  0  0
    6.0383   -1.2199   -1.5003 H   0  0  0  0  0  0  0  0  0  0  0  0
    6.9034   -1.6605    0.0116 H   0  0  0  0  0  0  0  0  0  0  0  0
    5.0087    2.1918    1.1882 H   0  0  0  0  0  0  0  0  0  0  0  0
    2.8074    2.1049    2.4001 H   0  0  0  0  0  0  0  0  0  0  0  0
    2.4083   -2.0437    1.3567 H   0  0  0  0  0  0  0  0  0  0  0  0
    4.5866   -1.9857    0.1855 H   0  0  0  0  0  0  0  0  0  0  0  0
    1.6576    1.5052   -0.6157 Au  0  0  0  0  0  0  0  0  0  0  0  0
    0.6295   -1.3641    7.3077 H   0  0  0  0  0  0  0  0  0  0  0  0
    1.2792    0.2263    6.9175 H   0  0  0  0  0  0  0  0  0  0  0  0
    0.1925    0.1020    9.2490 H   0  0  0  0  0  0  0  0  0  0  0  0
   -0.4738    1.3605    8.2002 H   0  0  0  0  0  0  0  0  0  0  0  0
   -1.7698   -0.2709   10.6497 H   0  0  0  0  0  0  0  0  0  0  0  0
   -4.1147   -1.0670   10.8845 H   0  0  0  0  0  0  0  0  0  0  0  0
   -5.4796   -1.5345    8.8449 H   0  0  0  0  0  0  0  0  0  0  0  0
   -4.4802   -1.2330    6.5923 H   0  0  0  0  0  0  0  0  0  0  0  0
  1  2  1  0  0  0  0
  1 30  1  0  0  0  0
  2  3  1  0  0  0  0
  3  8  2  0  0  0  0
  3  4  1  0  0  0  0
  4  5  2  0  0  0  0
  5  6  1  0  0  0  0
  5 32  1  0  0  0  0
  6  9  1  0  0  0  0
  7 33  1  0  0  0  0
  7  6  2  0  0  0  0
  8  7  1  0  0  0  0
  9 26  1  0  0  0  0
 10 12  2  0  0  0  0
 10  9  1  0  0  0  0
 11 10  1  0  0  0  0
 12 13  2  0  0  0  0
 13 14  1  0  0  0  0
 14 15  1  0  0  0  0
 15 24  1  0  0  0  0
 16 15  2  0  0  0  0
 16 17  1  0  0  0  0
 17 36  1  0  0  0  0
 17 18  1  0  0  0  0
 18 19  1  0  0  0  0
 18 38  1  0  0  0  0
 19 20  2  0  0  0  0
 20 21  1  0  0  0  0
 20 40  1  0  0  0  0
 21 41  1  0  0  0  0
 22 42  1  0  0  0  0
 22 21  2  0  0  0  0
 23 22  1  0  0  0  0
 24 23  2  0  0  0  0
 24 19  1  0  0  0  0
 25 13  1  1  0  0  0
 25 16  1  0  0  0  0
 26 25  1  0  0  0  0
 26 27  2  0  0  0  0
 28  1  1  0  0  0  0
 29  1  1  0  0  0  0
 31  4  1  0  0  0  0
 34  8  1  0  0  0  0
 35 11  1  0  0  0  0
 37 17  1  0  0  0  0
 39 18  1  0  0  0  0
 43 23  1  0  0  0  0
M  RAD  1  25   2
M  END
