002-588-737.xyz
 OpenBabel07262113403D
Sc1nnc(c2c1c1ccccc1[nH]2)c1ccccc1
 31 34  0  0  0  0  0  0  0  0999 V2000
    0.0000    0.0000    0.0000 S   0  0  0  0  0  0  0  0  0  0  0  0
   -0.0000    0.0000    1.7544 C   0  0  0  0  0  0  0  0  0  0  0  0
    1.1756    0.0000    2.4140 N   0  0  0  0  0  0  0  0  0  0  0  0
    1.2355   -0.0188    3.7283 N   0  0  0  0  0  0  0  0  0  0  0  0
    0.1474   -0.0421    4.5036 C   0  0  0  0  0  0  0  0  0  0  0  0
    0.3559   -0.0691    5.9684 C   0  0  0  0  0  0  0  0  0  0  0  0
    1.4894    0.5534    6.5206 C   0  0  0  0  0  0  0  0  0  0  0  0
    1.7035    0.5414    7.8976 C   0  0  0  0  0  0  0  0  0  0  0  0
    0.7953   -0.0971    8.7498 C   0  0  0  0  0  0  0  0  0  0  0  0
   -0.3238   -0.7358    8.2111 C   0  0  0  0  0  0  0  0  0  0  0  0
   -0.5415   -0.7241    6.8311 C   0  0  0  0  0  0  0  0  0  0  0  0
   -1.1213   -0.0017    3.8847 C   0  0  0  0  0  0  0  0  0  0  0  0
   -2.3914    0.0656    4.4101 N   0  0  0  0  0  0  0  0  0  0  0  0
   -3.3192    0.1332    3.3792 C   0  0  0  0  0  0  0  0  0  0  0  0
   -4.7126    0.2263    3.4376 C   0  0  0  0  0  0  0  0  0  0  0  0
   -5.4056    0.2739    2.2284 C   0  0  0  0  0  0  0  0  0  0  0  0
   -4.7309    0.2300    0.9927 C   0  0  0  0  0  0  0  0  0  0  0  0
   -3.3420    0.1390    0.9365 C   0  0  0  0  0  0  0  0  0  0  0  0
   -2.6197    0.0911    2.1388 C   0  0  0  0  0  0  0  0  0  0  0  0
   -1.2136    0.0132    2.4735 C   0  0  0  0  0  0  0  0  0  0  0  0
    2.3220    0.0241   -0.2369 Au  0  0  0  0  0  0  0  0  0  0  0  0
    2.1940    1.0396    5.8449 H   0  0  0  0  0  0  0  0  0  0  0  0
    2.5857    1.0353    8.3122 H   0  0  0  0  0  0  0  0  0  0  0  0
    0.9647   -0.1032    9.8290 H   0  0  0  0  0  0  0  0  0  0  0  0
   -1.0253   -1.2586    8.8657 H   0  0  0  0  0  0  0  0  0  0  0  0
   -1.3912   -1.2742    6.4207 H   0  0  0  0  0  0  0  0  0  0  0  0
   -2.6010    0.1574    5.3947 H   0  0  0  0  0  0  0  0  0  0  0  0
   -5.2395    0.2604    4.3935 H   0  0  0  0  0  0  0  0  0  0  0  0
   -6.4956    0.3464    2.2415 H   0  0  0  0  0  0  0  0  0  0  0  0
   -5.3076    0.2683    0.0662 H   0  0  0  0  0  0  0  0  0  0  0  0
   -2.8184    0.1068   -0.0202 H   0  0  0  0  0  0  0  0  0  0  0  0
  1  2  1  0  0  0  0
  2  3  2  0  0  0  0
  2 20  1  0  0  0  0
  3  4  1  0  0  0  0
  4  5  2  0  0  0  0
  5  6  1  0  0  0  0
  6  7  2  0  0  0  0
  6 11  1  0  0  0  0
  7  8  1  0  0  0  0
  8 23  1  0  0  0  0
  8  9  2  0  0  0  0
  9 24  1  0  0  0  0
 10  9  1  0  0  0  0
 10 25  1  0  0  0  0
 11 10  2  0  0  0  0
 12 13  1  0  0  0  0
 12  5  1  0  0  0  0
 13 27  1  0  0  0  0
 14 15  1  0  0  0  0
 14 13  1  0  0  0  0
 15 28  1  0  0  0  0
 16 29  1  0  0  0  0
 16 15  2  0  0  0  0
 17 16  1  0  0  0  0
 18 17  2  0  0  0  0
 18 19  1  0  0  0  0
 19 20  1  0  0  0  0
 19 14  2  0  0  0  0
 20 12  2  0  0  0  0
 21  1  1  0  0  0  0
 22  7  1  0  0  0  0
 26 11  1  0  0  0  0
 30 17  1  0  0  0  0
 31 18  1  0  0  0  0
M  END
