002-471-281.xyz
 OpenBabel07262113403D
Cc1nc(S)[nH]c(=O)c1CCC(=O)O
 24 24  0  0  1  0  0  0  0  0999 V2000
   -2.6436    0.3044    4.2202 C   0  0  0  0  0  0  0  0  0  0  0  0
   -1.2359    0.1803    3.7109 C   0  0  0  0  0  0  0  0  0  0  0  0
   -1.1620    0.0761    2.3379 N   0  0  0  0  0  0  0  0  0  0  0  0
   -0.0000    0.0000    1.7771 C   0  0  0  0  0  0  0  0  0  0  0  0
    0.0000    0.0000    0.0000 S   0  0  0  0  0  0  0  0  0  0  0  0
    1.1607    0.0000    2.4873 N   0  0  0  0  0  0  0  0  0  0  0  0
    1.2004    0.0698    3.8918 C   0  0  0  0  0  0  0  0  0  0  0  0
    2.2773    0.0771    4.4703 O   0  0  0  0  0  0  0  0  0  0  0  0
   -0.1166    0.1475    4.5160 C   0  0  1  0  0  0  0  0  0  0  0  0
   -0.1132    0.2015    6.0188 C   0  0  0  0  0  0  0  0  0  0  0  0
    0.4280    1.5264    6.5647 C   0  0  0  0  0  0  0  0  0  0  0  0
    0.3149    1.6193    8.0779 C   0  0  0  0  0  0  0  0  0  0  0  0
    1.0080    2.6359    8.6435 O   0  0  0  0  0  0  0  0  0  0  0  0
   -0.3488    0.8854    8.7575 O   0  0  0  0  0  0  0  0  0  0  0  0
   -3.1473    1.1259    3.6878 H   0  0  0  0  0  0  0  0  0  0  0  0
   -3.2036   -0.6136    3.9779 H   0  0  0  0  0  0  0  0  0  0  0  0
   -2.7047    0.4828    5.2991 H   0  0  0  0  0  0  0  0  0  0  0  0
    1.9723   -1.0184   -0.6078 Au  0  0  0  0  0  0  0  0  0  0  0  0
    2.0617   -0.0189    2.0174 H   0  0  0  0  0  0  0  0  0  0  0  0
    0.5308   -0.6080    6.3978 H   0  0  0  0  0  0  0  0  0  0  0  0
   -1.1119    0.0269    6.4349 H   0  0  0  0  0  0  0  0  0  0  0  0
   -0.1336    2.3783    6.1387 H   0  0  0  0  0  0  0  0  0  0  0  0
    1.4788    1.6526    6.2568 H   0  0  0  0  0  0  0  0  0  0  0  0
    1.5152    3.1086    7.9683 H   0  0  0  0  0  0  0  0  0  0  0  0
  1 17  1  0  0  0  0
  2  1  1  0  0  0  0
  2  9  1  0  0  0  0
  3  2  2  0  0  0  0
  4  3  2  0  0  0  0
  4  6  1  0  0  0  0
  5  4  1  0  0  0  0
  6  7  1  0  0  0  0
  7  8  2  0  0  0  0
  7  9  1  0  0  0  0
  9 10  1  6  0  0  0
 10 20  1  0  0  0  0
 10 21  1  0  0  0  0
 10 11  1  0  0  0  0
 11 12  1  0  0  0  0
 12 13  1  0  0  0  0
 12 14  2  0  0  0  0
 15  1  1  0  0  0  0
 16  1  1  0  0  0  0
 18  5  1  0  0  0  0
 19  6  1  0  0  0  0
 22 11  1  0  0  0  0
 23 11  1  0  0  0  0
 24 13  1  0  0  0  0
M  RAD  1   9   2
M  END
