002-633-036.xyz
 OpenBabel07262113403D
Cc1n[nH]c(c1)c1nnc(n1/N=C/c1sccc1C)S
 32 34  0  0  0  0  0  0  0  0999 V2000
   -2.1923    0.1673    8.6875 C   0  0  0  0  0  0  0  0  0  0  0  0
   -2.0642    0.1530    7.1968 C   0  0  0  0  0  0  0  0  0  0  0  0
   -0.8867    0.0492    6.4155 C   0  0  0  0  0  0  0  0  0  0  0  0
   -1.3303    0.0807    5.0952 C   0  0  0  0  0  0  0  0  0  0  0  0
   -2.6876    0.1956    5.1619 N   0  0  0  0  0  0  0  0  0  0  0  0
   -3.1468    0.2428    6.4129 N   0  0  0  0  0  0  0  0  0  0  0  0
   -0.5748    0.0287    3.8656 C   0  0  0  0  0  0  0  0  0  0  0  0
    0.7474   -0.0074    3.7869 N   0  0  0  0  0  0  0  0  0  0  0  0
    1.0951    0.0000    2.4800 N   0  0  0  0  0  0  0  0  0  0  0  0
   -0.0000    0.0000    1.7404 C   0  0  0  0  0  0  0  0  0  0  0  0
    0.0000    0.0000    0.0000 S   0  0  0  0  0  0  0  0  0  0  0  0
   -1.1126    0.0022    2.5955 N   0  0  0  0  0  0  0  0  0  0  0  0
   -2.4607    0.1388    2.3757 N   0  0  0  0  0  0  0  0  0  0  0  0
   -2.9594   -0.3430    1.2860 C   0  0  0  0  0  0  0  0  0  0  0  0
   -4.3509   -0.1907    0.9424 C   0  0  0  0  0  0  0  0  0  0  0  0
   -4.8984   -0.9496   -0.5370 S   0  0  0  0  0  0  0  0  0  0  0  0
   -6.4924   -0.3554   -0.3082 C   0  0  0  0  0  0  0  0  0  0  0  0
   -6.6032    0.3932    0.8413 C   0  0  0  0  0  0  0  0  0  0  0  0
   -5.3860    0.5021    1.5734 C   0  0  0  0  0  0  0  0  0  0  0  0
   -5.2655    1.2703    2.8560 C   0  0  0  0  0  0  0  0  0  0  0  0
   -3.2491    0.2734    8.9684 H   0  0  0  0  0  0  0  0  0  0  0  0
   -1.8049   -0.7633    9.1331 H   0  0  0  0  0  0  0  0  0  0  0  0
   -1.6271    1.0029    9.1311 H   0  0  0  0  0  0  0  0  0  0  0  0
    0.1457   -0.0368    6.7421 H   0  0  0  0  0  0  0  0  0  0  0  0
   -3.2969    0.2669    4.3547 H   0  0  0  0  0  0  0  0  0  0  0  0
   -0.8602    2.0997   -0.4870 Au  0  0  0  0  0  0  0  0  0  0  0  0
   -2.3307   -0.8812    0.5666 H   0  0  0  0  0  0  0  0  0  0  0  0
   -7.2725   -0.5852   -1.0324 H   0  0  0  0  0  0  0  0  0  0  0  0
   -7.5345    0.8629    1.1613 H   0  0  0  0  0  0  0  0  0  0  0  0
   -6.1133    1.9593    2.9774 H   0  0  0  0  0  0  0  0  0  0  0  0
   -5.2741    0.5940    3.7285 H   0  0  0  0  0  0  0  0  0  0  0  0
   -4.3285    1.8433    2.8962 H   0  0  0  0  0  0  0  0  0  0  0  0
  1 21  1  0  0  0  0
  1 23  1  0  0  0  0
  1 22  1  0  0  0  0
  2  1  1  0  0  0  0
  3 24  1  0  0  0  0
  3  2  1  0  0  0  0
  4  5  1  0  0  0  0
  4  3  2  0  0  0  0
  5  6  1  0  0  0  0
  6  2  2  0  0  0  0
  7  4  1  0  0  0  0
  8  7  2  0  0  0  0
  9  8  1  0  0  0  0
 10  9  2  0  0  0  0
 10 12  1  0  0  0  0
 11 10  1  0  0  0  0
 12  7  1  0  0  0  0
 13 12  1  0  0  0  0
 14 13  2  0  0  0  0
 15 14  1  0  0  0  0
 15 19  2  0  0  0  0
 16 17  1  0  0  0  0
 16 15  1  0  0  0  0
 17 18  2  0  0  0  0
 18 29  1  0  0  0  0
 18 19  1  0  0  0  0
 19 20  1  0  0  0  0
 20 32  1  0  0  0  0
 20 30  1  0  0  0  0
 20 31  1  0  0  0  0
 25  5  1  0  0  0  0
 26 11  1  0  0  0  0
 27 14  1  0  0  0  0
 28 17  1  0  0  0  0
M  END
