002-463-483.xyz
 OpenBabel07262113393D
COc1cccc(c1)n1c(S)nc2c(c1=O)c1CCCCc1s2
 39 42  0  0  1  0  0  0  0  0999 V2000
   -5.7623   -2.5417   -0.8037 C   0  0  0  0  0  0  0  0  0  0  0  0
   -4.6077   -2.4513   -0.0009 O   0  0  0  0  0  0  0  0  0  0  0  0
   -4.1330   -1.2274    0.3325 C   0  0  0  0  0  0  0  0  0  0  0  0
   -4.7057   -0.0137   -0.0768 C   0  0  0  0  0  0  0  0  0  0  0  0
   -4.1319    1.1966    0.3294 C   0  0  0  0  0  0  0  0  0  0  0  0
   -2.9964    1.2189    1.1335 C   0  0  0  0  0  0  0  0  0  0  0  0
   -2.4307    0.0008    1.5283 C   0  0  0  0  0  0  0  0  0  0  0  0
   -2.9878   -1.2134    1.1436 C   0  0  0  0  0  0  0  0  0  0  0  0
   -1.2513    0.0004    2.3555 N   0  0  0  0  0  0  0  0  0  0  0  0
    0.0000    0.0000    1.7750 C   0  0  0  0  0  0  0  0  0  0  0  0
    0.0000    0.0000    0.0000 S   0  0  0  0  0  0  0  0  0  0  0  0
    1.1086   -0.0000    2.4627 N   0  0  0  0  0  0  0  0  0  0  0  0
    0.9787    0.0013    3.8100 C   0  0  0  0  0  0  0  0  0  0  0  0
   -0.2216    0.0060    4.5213 C   0  0  1  0  0  0  0  0  0  0  0  0
   -1.4631    0.0066    3.7793 C   0  0  0  0  0  0  0  0  0  0  0  0
   -2.5965    0.0097    4.2214 O   0  0  0  0  0  0  0  0  0  0  0  0
   -0.0363    0.0023    5.9481 C   0  0  0  0  0  0  0  0  0  0  0  0
   -1.1311    0.0080    6.9826 C   0  0  0  0  0  0  0  0  0  0  0  0
   -0.5906   -0.3574    8.3706 C   0  0  0  0  0  0  0  0  0  0  0  0
    0.7142    0.3837    8.6813 C   0  0  0  0  0  0  0  0  0  0  0  0
    1.8250   -0.0053    7.6940 C   0  0  0  0  0  0  0  0  0  0  0  0
    1.2931    0.0032    6.2901 C   0  0  0  0  0  0  0  0  0  0  0  0
    2.3518   -0.0016    4.8869 S   0  0  0  0  0  0  0  0  0  0  0  0
   -5.9655   -3.6119   -0.9403 H   0  0  0  0  0  0  0  0  0  0  0  0
   -5.6105   -2.0761   -1.7942 H   0  0  0  0  0  0  0  0  0  0  0  0
   -6.6358   -2.0694   -0.3193 H   0  0  0  0  0  0  0  0  0  0  0  0
   -5.5945    0.0010   -0.7065 H   0  0  0  0  0  0  0  0  0  0  0  0
   -4.5873    2.1360    0.0084 H   0  0  0  0  0  0  0  0  0  0  0  0
   -2.5427    2.1564    1.4556 H   0  0  0  0  0  0  0  0  0  0  0  0
   -2.5461   -2.1581    1.4602 H   0  0  0  0  0  0  0  0  0  0  0  0
    2.2903    0.0040   -0.3305 Au  0  0  0  0  0  0  0  0  0  0  0  0
   -1.9379   -0.6719    6.6718 H   0  0  0  0  0  0  0  0  0  0  0  0
   -1.5965    1.0102    7.0040 H   0  0  0  0  0  0  0  0  0  0  0  0
   -1.3497   -0.1364    9.1376 H   0  0  0  0  0  0  0  0  0  0  0  0
   -0.4044   -1.4454    8.4158 H   0  0  0  0  0  0  0  0  0  0  0  0
    0.5370    1.4718    8.6167 H   0  0  0  0  0  0  0  0  0  0  0  0
    1.0453    0.1758    9.7112 H   0  0  0  0  0  0  0  0  0  0  0  0
    2.2109   -1.0121    7.9418 H   0  0  0  0  0  0  0  0  0  0  0  0
    2.6836    0.6805    7.7891 H   0  0  0  0  0  0  0  0  0  0  0  0
  1 26  1  0  0  0  0
  1  2  1  0  0  0  0
  2  3  1  0  0  0  0
  3  8  2  0  0  0  0
  4  5  2  0  0  0  0
  4  3  1  0  0  0  0
  5  6  1  0  0  0  0
  6 29  1  0  0  0  0
  6  7  2  0  0  0  0
  7  9  1  0  0  0  0
  8 30  1  0  0  0  0
  8  7  1  0  0  0  0
  9 15  1  0  0  0  0
 10  9  1  0  0  0  0
 10 12  2  0  0  0  0
 11 10  1  0  0  0  0
 12 13  2  0  0  0  0
 13 14  1  0  0  0  0
 13 23  1  0  0  0  0
 14 15  1  6  0  0  0
 14 17  1  0  0  0  0
 15 16  2  0  0  0  0
 17 22  2  0  0  0  0
 17 18  1  0  0  0  0
 18 33  1  0  0  0  0
 18 19  1  0  0  0  0
 19 35  1  0  0  0  0
 19 20  1  0  0  0  0
 19 34  1  0  0  0  0
 20 37  1  0  0  0  0
 21 39  1  0  0  0  0
 21 38  1  0  0  0  0
 21 20  1  0  0  0  0
 22 21  1  0  0  0  0
 23 22  1  0  0  0  0
 24  1  1  0  0  0  0
 25  1  1  0  0  0  0
 27  4  1  0  0  0  0
 28  5  1  0  0  0  0
 31 11  1  0  0  0  0
 32 18  1  0  0  0  0
 36 20  1  0  0  0  0
M  RAD  1  14   2
M  END
