002-467-716.xyz
 OpenBabel07262113403D
CCc1c(C)sc2c1c(=O)n(c(n2)S)c1ccc(cc1)OC
 38 40  0  0  1  0  0  0  0  0999 V2000
   -1.8245    1.3964    7.0940 C   0  0  0  0  0  0  0  0  0  0  0  0
   -1.2148   -0.0016    6.9277 C   0  0  0  0  0  0  0  0  0  0  0  0
   -0.0633   -0.0255    5.9561 C   0  0  0  0  0  0  0  0  0  0  0  0
    1.2678   -0.0234    6.3034 C   0  0  0  0  0  0  0  0  0  0  0  0
    1.8906   -0.0166    7.6648 C   0  0  0  0  0  0  0  0  0  0  0  0
    2.3290   -0.0135    4.8951 S   0  0  0  0  0  0  0  0  0  0  0  0
    0.9647   -0.0038    3.8147 C   0  0  0  0  0  0  0  0  0  0  0  0
   -0.2373   -0.0067    4.5226 C   0  0  1  0  0  0  0  0  0  0  0  0
   -1.4732   -0.0050    3.7687 C   0  0  0  0  0  0  0  0  0  0  0  0
   -2.6128   -0.0018    4.1987 O   0  0  0  0  0  0  0  0  0  0  0  0
   -1.2541   -0.0010    2.3476 N   0  0  0  0  0  0  0  0  0  0  0  0
   -0.0000    0.0000    1.7750 C   0  0  0  0  0  0  0  0  0  0  0  0
    1.1043    0.0000    2.4681 N   0  0  0  0  0  0  0  0  0  0  0  0
    0.0000    0.0000    0.0000 S   0  0  0  0  0  0  0  0  0  0  0  0
   -2.4232    0.0013    1.5093 C   0  0  0  0  0  0  0  0  0  0  0  0
   -2.9736    1.2090    1.0834 C   0  0  0  0  0  0  0  0  0  0  0  0
   -4.1086    1.2217    0.2712 C   0  0  0  0  0  0  0  0  0  0  0  0
   -4.7031    0.0083   -0.1100 C   0  0  0  0  0  0  0  0  0  0  0  0
   -4.1501   -1.2078    0.3320 C   0  0  0  0  0  0  0  0  0  0  0  0
   -3.0215   -1.2098    1.1383 C   0  0  0  0  0  0  0  0  0  0  0  0
   -5.8015   -0.0892   -0.8929 O   0  0  0  0  0  0  0  0  0  0  0  0
   -6.4158    1.0890   -1.3650 C   0  0  0  0  0  0  0  0  0  0  0  0
   -2.2297    1.7516    6.1354 H   0  0  0  0  0  0  0  0  0  0  0  0
   -2.6515    1.3781    7.8217 H   0  0  0  0  0  0  0  0  0  0  0  0
   -1.0719    2.1201    7.4462 H   0  0  0  0  0  0  0  0  0  0  0  0
   -0.8802   -0.3811    7.9055 H   0  0  0  0  0  0  0  0  0  0  0  0
   -1.9962   -0.6848    6.5642 H   0  0  0  0  0  0  0  0  0  0  0  0
    2.4567    0.9123    7.8484 H   0  0  0  0  0  0  0  0  0  0  0  0
    2.5913   -0.8577    7.7981 H   0  0  0  0  0  0  0  0  0  0  0  0
    1.1194   -0.0948    8.4428 H   0  0  0  0  0  0  0  0  0  0  0  0
    2.2900   -0.0322   -0.3364 Au  0  0  0  0  0  0  0  0  0  0  0  0
   -2.5060    2.1470    1.3875 H   0  0  0  0  0  0  0  0  0  0  0  0
   -4.5194    2.1766   -0.0538 H   0  0  0  0  0  0  0  0  0  0  0  0
   -4.6323   -2.1375    0.0262 H   0  0  0  0  0  0  0  0  0  0  0  0
   -2.5893   -2.1493    1.4862 H   0  0  0  0  0  0  0  0  0  0  0  0
   -6.7722    1.7247   -0.5350 H   0  0  0  0  0  0  0  0  0  0  0  0
   -7.2768    0.7727   -1.9681 H   0  0  0  0  0  0  0  0  0  0  0  0
   -5.7314    1.6812   -1.9985 H   0  0  0  0  0  0  0  0  0  0  0  0
  1 25  1  0  0  0  0
  1 24  1  0  0  0  0
  2  1  1  0  0  0  0
  2 26  1  0  0  0  0
  3  4  2  0  0  0  0
  3  2  1  0  0  0  0
  4  5  1  0  0  0  0
  5 29  1  0  0  0  0
  5 28  1  0  0  0  0
  5 30  1  0  0  0  0
  6  4  1  0  0  0  0
  7  8  1  0  0  0  0
  7  6  1  0  0  0  0
  8  9  1  6  0  0  0
  8  3  1  0  0  0  0
  9 10  2  0  0  0  0
 11  9  1  0  0  0  0
 12 11  1  0  0  0  0
 12 13  2  0  0  0  0
 13  7  2  0  0  0  0
 14 12  1  0  0  0  0
 15 11  1  0  0  0  0
 16 32  1  0  0  0  0
 16 15  2  0  0  0  0
 17 16  1  0  0  0  0
 18 17  2  0  0  0  0
 18 19  1  0  0  0  0
 19 20  2  0  0  0  0
 20 35  1  0  0  0  0
 20 15  1  0  0  0  0
 21 18  1  0  0  0  0
 22 21  1  0  0  0  0
 22 36  1  0  0  0  0
 23  1  1  0  0  0  0
 27  2  1  0  0  0  0
 31 14  1  0  0  0  0
 33 17  1  0  0  0  0
 34 19  1  0  0  0  0
 37 22  1  0  0  0  0
 38 22  1  0  0  0  0
M  RAD  1   8   2
M  END
