002-570-108.xyz
 OpenBabel07262113403D
CCCc1c(C)nc2c(c1S)cccc2OC
 34 35  0  0  1  0  0  0  0  0999 V2000
    4.4144   -1.2132    0.5983 C   0  0  0  0  0  0  0  0  0  0  0  0
    3.0653   -1.3023    1.3062 C   0  0  0  0  0  0  0  0  0  0  0  0
    2.5395    0.0729    1.7529 C   0  0  0  0  0  0  0  0  0  0  0  0
    1.2160    0.0000    2.4689 C   0  0  0  0  0  0  0  0  0  0  0  0
    1.1760   -0.1065    3.9008 C   0  0  0  0  0  0  0  0  0  0  0  0
    2.4499   -0.1480    4.7094 C   0  0  0  0  0  0  0  0  0  0  0  0
    0.0511   -0.1544    4.5828 N   0  0  0  0  0  0  0  0  0  0  0  0
   -1.1347   -0.1258    3.9356 C   0  0  0  0  0  0  0  0  0  0  0  0
   -2.3393   -0.1631    4.7261 C   0  0  0  0  0  0  0  0  0  0  0  0
   -2.1610   -0.2095    6.0592 O   0  0  0  0  0  0  0  0  0  0  0  0
   -3.2917   -0.2503    6.8967 C   0  0  0  0  0  0  0  0  0  0  0  0
   -3.5760   -0.1478    4.0970 C   0  0  0  0  0  0  0  0  0  0  0  0
   -3.6518   -0.1069    2.6866 C   0  0  0  0  0  0  0  0  0  0  0  0
   -2.5181   -0.0719    1.9020 C   0  0  0  0  0  0  0  0  0  0  0  0
   -1.2365   -0.0686    2.5114 C   0  0  1  0  0  0  0  0  0  0  0  0
    0.0000    0.0000    1.7831 C   0  0  0  0  0  0  0  0  0  0  0  0
    0.0000    0.0000    0.0000 S   0  0  0  0  0  0  0  0  0  0  0  0
    5.1842   -0.7764    1.2563 H   0  0  0  0  0  0  0  0  0  0  0  0
    4.7699   -2.2061    0.2809 H   0  0  0  0  0  0  0  0  0  0  0  0
    4.3477   -0.5776   -0.3000 H   0  0  0  0  0  0  0  0  0  0  0  0
    3.1398   -1.9706    2.1816 H   0  0  0  0  0  0  0  0  0  0  0  0
    2.3179   -1.7591    0.6360 H   0  0  0  0  0  0  0  0  0  0  0  0
    3.2893    0.5499    2.4017 H   0  0  0  0  0  0  0  0  0  0  0  0
    2.4304    0.7093    0.8620 H   0  0  0  0  0  0  0  0  0  0  0  0
    3.0103    0.7985    4.6285 H   0  0  0  0  0  0  0  0  0  0  0  0
    2.1898   -0.3106    5.7625 H   0  0  0  0  0  0  0  0  0  0  0  0
    3.1242   -0.9521    4.3754 H   0  0  0  0  0  0  0  0  0  0  0  0
   -3.9099   -1.1464    6.7068 H   0  0  0  0  0  0  0  0  0  0  0  0
   -2.9157   -0.2863    7.9275 H   0  0  0  0  0  0  0  0  0  0  0  0
   -3.9244    0.6475    6.7749 H   0  0  0  0  0  0  0  0  0  0  0  0
   -4.4969   -0.1744    4.6779 H   0  0  0  0  0  0  0  0  0  0  0  0
   -4.6368   -0.1106    2.2134 H   0  0  0  0  0  0  0  0  0  0  0  0
   -2.5902   -0.0627    0.8158 H   0  0  0  0  0  0  0  0  0  0  0  0
   -0.7891    2.1184   -0.4810 Au  0  0  0  0  0  0  0  0  0  0  0  0
  1 18  1  0  0  0  0
  1  2  1  0  0  0  0
  2  3  1  0  0  0  0
  2 21  1  0  0  0  0
  3 23  1  0  0  0  0
  3  4  1  0  0  0  0
  4  5  1  0  0  0  0
  5  7  2  0  0  0  0
  5  6  1  0  0  0  0
  6 26  1  0  0  0  0
  8  7  2  0  0  0  0
  8  9  1  0  0  0  0
  9 10  1  0  0  0  0
 10 11  1  0  0  0  0
 11 29  1  0  0  0  0
 12 31  1  0  0  0  0
 12  9  2  0  0  0  0
 13 12  1  0  0  0  0
 14 15  1  0  0  0  0
 14 13  2  0  0  0  0
 15 16  1  1  0  0  0
 15  8  1  0  0  0  0
 16  4  2  0  0  0  0
 17 16  1  0  0  0  0
 19  1  1  0  0  0  0
 20  1  1  0  0  0  0
 22  2  1  0  0  0  0
 24  3  1  0  0  0  0
 25  6  1  0  0  0  0
 27  6  1  0  0  0  0
 28 11  1  0  0  0  0
 30 11  1  0  0  0  0
 32 13  1  0  0  0  0
 33 14  1  0  0  0  0
 34 17  1  0  0  0  0
M  RAD  1  15   2
M  END
