002-575-624.xyz
 OpenBabel07262113403D
Clc1ccc(cc1)c1nnc(n1/N=C/c1cc(Br)ccc1O)S
 33 35  0  0  0  0  0  0  0  0999 V2000
   -3.0895   -1.0792   -1.5266 O   0  0  0  0  0  0  0  0  0  0  0  0
   -4.1599   -0.6423   -0.8287 C   0  0  0  0  0  0  0  0  0  0  0  0
   -5.3812   -0.5234   -1.5084 C   0  0  0  0  0  0  0  0  0  0  0  0
   -6.5039   -0.0229   -0.8586 C   0  0  0  0  0  0  0  0  0  0  0  0
   -6.4170    0.3816    0.4829 C   0  0  0  0  0  0  0  0  0  0  0  0
   -7.9550    1.0894    1.3544 Br  0  0  0  0  0  0  0  0  0  0  0  0
   -5.2210    0.2623    1.1772 C   0  0  0  0  0  0  0  0  0  0  0  0
   -4.0917   -0.2808    0.5372 C   0  0  0  0  0  0  0  0  0  0  0  0
   -2.8282   -0.4808    1.2312 C   0  0  0  0  0  0  0  0  0  0  0  0
   -2.4266    0.2669    2.1963 N   0  0  0  0  0  0  0  0  0  0  0  0
   -1.1238    0.0276    2.5817 N   0  0  0  0  0  0  0  0  0  0  0  0
    0.0000    0.0000    1.7462 C   0  0  0  0  0  0  0  0  0  0  0  0
    0.0000    0.0000    0.0000 S   0  0  0  0  0  0  0  0  0  0  0  0
    1.0845    0.0000    2.4997 N   0  0  0  0  0  0  0  0  0  0  0  0
    0.7065    0.0134    3.7939 N   0  0  0  0  0  0  0  0  0  0  0  0
   -0.6212    0.0675    3.8605 C   0  0  0  0  0  0  0  0  0  0  0  0
   -1.3702    0.1204    5.1155 C   0  0  0  0  0  0  0  0  0  0  0  0
   -2.7741    0.1554    5.1901 C   0  0  0  0  0  0  0  0  0  0  0  0
   -3.4182    0.2103    6.4253 C   0  0  0  0  0  0  0  0  0  0  0  0
   -2.6610    0.2277    7.5986 C   0  0  0  0  0  0  0  0  0  0  0  0
   -3.4655    0.2918    9.1443 Cl  0  0  0  0  0  0  0  0  0  0  0  0
   -1.2626    0.1924    7.5471 C   0  0  0  0  0  0  0  0  0  0  0  0
   -0.6258    0.1396    6.3130 C   0  0  0  0  0  0  0  0  0  0  0  0
   -2.2520   -0.8799   -1.0726 H   0  0  0  0  0  0  0  0  0  0  0  0
   -5.4216   -0.8130   -2.5597 H   0  0  0  0  0  0  0  0  0  0  0  0
   -7.4502    0.0693   -1.3936 H   0  0  0  0  0  0  0  0  0  0  0  0
   -5.1449    0.5636    2.2221 H   0  0  0  0  0  0  0  0  0  0  0  0
   -2.1932   -1.2998    0.8700 H   0  0  0  0  0  0  0  0  0  0  0  0
   -0.8229    2.1157   -0.4927 Au  0  0  0  0  0  0  0  0  0  0  0  0
   -3.3673    0.1486    4.2782 H   0  0  0  0  0  0  0  0  0  0  0  0
   -4.5070    0.2381    6.4827 H   0  0  0  0  0  0  0  0  0  0  0  0
   -0.6856    0.2067    8.4726 H   0  0  0  0  0  0  0  0  0  0  0  0
    0.4625    0.1126    6.2495 H   0  0  0  0  0  0  0  0  0  0  0  0
  1 24  1  0  0  0  0
  1  2  1  0  0  0  0
  2  8  2  0  0  0  0
  3  4  2  0  0  0  0
  3  2  1  0  0  0  0
  4  5  1  0  0  0  0
  5  7  2  0  0  0  0
  5  6  1  0  0  0  0
  7 27  1  0  0  0  0
  8  7  1  0  0  0  0
  8  9  1  0  0  0  0
  9 10  1  0  0  0  0
 10 11  1  0  0  0  0
 11 16  1  0  0  0  0
 12 14  2  0  0  0  0
 12 11  1  0  0  0  0
 13 12  1  0  0  0  0
 14 15  1  0  0  0  0
 15 16  2  0  0  0  0
 16 17  1  0  0  0  0
 17 18  2  0  0  0  0
 17 23  1  0  0  0  0
 18 19  1  0  0  0  0
 19 31  1  0  0  0  0
 19 20  2  0  0  0  0
 20 21  1  0  0  0  0
 22 20  1  0  0  0  0
 22 32  1  0  0  0  0
 23 22  2  0  0  0  0
 25  3  1  0  0  0  0
 26  4  1  0  0  0  0
 28  9  1  0  0  0  0
 29 13  1  0  0  0  0
 30 18  1  0  0  0  0
 33 23  1  0  0  0  0
M  RAD  2   9   2  10   2
M  END
