002-468-699.xyz
 OpenBabel07262113403D
Sc1nc2sc(c(c2c(=O)n1c1ccccc1)C)c1ccccc1
 38 41  0  0  1  0  0  0  0  0999 V2000
    0.0000    0.0000    0.0000 S   0  0  0  0  0  0  0  0  0  0  0  0
   -0.0000   -0.0000    1.7737 C   0  0  0  0  0  0  0  0  0  0  0  0
   -1.1077    0.0007    2.4629 N   0  0  0  0  0  0  0  0  0  0  0  0
   -0.9767   -0.0016    3.8098 C   0  0  0  0  0  0  0  0  0  0  0  0
   -2.3465   -0.0039    4.8776 S   0  0  0  0  0  0  0  0  0  0  0  0
   -1.2929   -0.0066    6.2961 C   0  0  0  0  0  0  0  0  0  0  0  0
    0.0460   -0.0046    5.9534 C   0  0  0  0  0  0  0  0  0  0  0  0
    0.2230   -0.0072    4.5245 C   0  0  2  0  0  0  0  0  0  0  0  0
    1.4645   -0.0014    3.7771 C   0  0  0  0  0  0  0  0  0  0  0  0
    2.6006    0.0027    4.2114 O   0  0  0  0  0  0  0  0  0  0  0  0
    1.2511   -0.0000    2.3537 N   0  0  0  0  0  0  0  0  0  0  0  0
    2.4297    0.0023    1.5259 C   0  0  0  0  0  0  0  0  0  0  0  0
    2.9943    1.2182    1.1328 C   0  0  0  0  0  0  0  0  0  0  0  0
    4.1327    1.2173    0.3262 C   0  0  0  0  0  0  0  0  0  0  0  0
    4.7037    0.0067   -0.0777 C   0  0  0  0  0  0  0  0  0  0  0  0
    4.1382   -1.2060    0.3273 C   0  0  0  0  0  0  0  0  0  0  0  0
    2.9998   -1.2113    1.1338 C   0  0  0  0  0  0  0  0  0  0  0  0
    1.1936    0.0459    6.9214 C   0  0  0  0  0  0  0  0  0  0  0  0
   -1.9167   -0.0080    7.6278 C   0  0  0  0  0  0  0  0  0  0  0  0
   -3.0542    0.7800    7.8922 C   0  0  0  0  0  0  0  0  0  0  0  0
   -3.6528    0.7733    9.1518 C   0  0  0  0  0  0  0  0  0  0  0  0
   -3.1271   -0.0177   10.1777 C   0  0  0  0  0  0  0  0  0  0  0  0
   -2.0032   -0.8099    9.9281 C   0  0  0  0  0  0  0  0  0  0  0  0
   -1.4076   -0.8118    8.6662 C   0  0  0  0  0  0  0  0  0  0  0  0
   -2.2905    0.0009   -0.3321 Au  0  0  0  0  0  0  0  0  0  0  0  0
    2.5345    2.1522    1.4594 H   0  0  0  0  0  0  0  0  0  0  0  0
    4.5764    2.1651    0.0136 H   0  0  0  0  0  0  0  0  0  0  0  0
    5.5953    0.0085   -0.7090 H   0  0  0  0  0  0  0  0  0  0  0  0
    4.5862   -2.1520    0.0156 H   0  0  0  0  0  0  0  0  0  0  0  0
    2.5442   -2.1472    1.4613 H   0  0  0  0  0  0  0  0  0  0  0  0
    1.6393   -0.9533    7.0628 H   0  0  0  0  0  0  0  0  0  0  0  0
    0.8732    0.4186    7.9034 H   0  0  0  0  0  0  0  0  0  0  0  0
    1.9962    0.6828    6.5277 H   0  0  0  0  0  0  0  0  0  0  0  0
   -3.4598    1.4149    7.1011 H   0  0  0  0  0  0  0  0  0  0  0  0
   -4.5315    1.3963    9.3357 H   0  0  0  0  0  0  0  0  0  0  0  0
   -3.5941   -0.0201   11.1653 H   0  0  0  0  0  0  0  0  0  0  0  0
   -1.5929   -1.4427   10.7189 H   0  0  0  0  0  0  0  0  0  0  0  0
   -0.5531   -1.4610    8.4720 H   0  0  0  0  0  0  0  0  0  0  0  0
  1  2  1  0  0  0  0
  2 11  1  0  0  0  0
  2  3  2  0  0  0  0
  3  4  2  0  0  0  0
  4  8  1  0  0  0  0
  4  5  1  0  0  0  0
  5  6  1  0  0  0  0
  6 19  1  0  0  0  0
  7  6  2  0  0  0  0
  7 18  1  0  0  0  0
  8  9  1  6  0  0  0
  8  7  1  0  0  0  0
  9 10  2  0  0  0  0
 11  9  1  0  0  0  0
 12 11  1  0  0  0  0
 13 26  1  0  0  0  0
 13 12  2  0  0  0  0
 14 13  1  0  0  0  0
 15 14  2  0  0  0  0
 15 16  1  0  0  0  0
 16 17  2  0  0  0  0
 17 30  1  0  0  0  0
 17 12  1  0  0  0  0
 18 31  1  0  0  0  0
 18 32  1  0  0  0  0
 19 20  2  0  0  0  0
 19 24  1  0  0  0  0
 20 21  1  0  0  0  0
 21 35  1  0  0  0  0
 21 22  2  0  0  0  0
 22 36  1  0  0  0  0
 23 22  1  0  0  0  0
 23 37  1  0  0  0  0
 24 23  2  0  0  0  0
 25  1  1  0  0  0  0
 27 14  1  0  0  0  0
 28 15  1  0  0  0  0
 29 16  1  0  0  0  0
 33 18  1  0  0  0  0
 34 20  1  0  0  0  0
 38 24  1  0  0  0  0
M  RAD  1   8   2
M  END
