003-911-207.xyz
 OpenBabel07262113403D
Clc1cc(Cl)c(cc1S)Cl
 13 13  0  0  0  0  0  0  0  0999 V2000
    0.0000    0.0000    0.0000 S   0  0  0  0  0  0  0  0  0  0  0  0
   -0.0000    0.0000    1.7723 C   0  0  0  0  0  0  0  0  0  0  0  0
    1.2434   -0.0000    2.4278 C   0  0  0  0  0  0  0  0  0  0  0  0
    1.3427   -0.1124    3.8139 C   0  0  0  0  0  0  0  0  0  0  0  0
    2.9110   -0.1216    4.5592 Cl  0  0  0  0  0  0  0  0  0  0  0  0
    0.1723   -0.2020    4.5872 C   0  0  0  0  0  0  0  0  0  0  0  0
    0.2446   -0.3293    6.3150 Cl  0  0  0  0  0  0  0  0  0  0  0  0
   -1.0745   -0.1838    3.9575 C   0  0  0  0  0  0  0  0  0  0  0  0
   -1.1633   -0.0936    2.5687 C   0  0  0  0  0  0  0  0  0  0  0  0
   -2.7485   -0.0662    1.8553 Cl  0  0  0  0  0  0  0  0  0  0  0  0
   -1.1020    1.9625   -0.5146 Au  0  0  0  0  0  0  0  0  0  0  0  0
    2.1537    0.0893    1.8348 H   0  0  0  0  0  0  0  0  0  0  0  0
   -1.9809   -0.2488    4.5584 H   0  0  0  0  0  0  0  0  0  0  0  0
  1  2  1  0  0  0  0
  2  3  2  0  0  0  0
  2  9  1  0  0  0  0
  3  4  1  0  0  0  0
  4  5  1  0  0  0  0
  4  6  2  0  0  0  0
  6  7  1  0  0  0  0
  8 13  1  0  0  0  0
  8  6  1  0  0  0  0
  9  8  2  0  0  0  0
 10  9  1  0  0  0  0
 11  1  1  0  0  0  0
 12  3  1  0  0  0  0
M  END
