003-940-983.xyz
 OpenBabel07262113403D
Sc1nc(N)c(c(n1)O)N
 16 16  0  0  1  0  0  0  0  0999 V2000
   -2.1952    0.0011    4.5413 N   0  0  0  0  0  0  0  0  0  0  0  0
   -1.0468    0.0026    3.8026 C   0  0  0  0  0  0  0  0  0  0  0  0
   -1.1425    0.0088    2.4631 N   0  0  0  0  0  0  0  0  0  0  0  0
    0.0000    0.0000    1.7798 C   0  0  0  0  0  0  0  0  0  0  0  0
    0.0000    0.0000    0.0000 S   0  0  0  0  0  0  0  0  0  0  0  0
    1.2275    0.0000    2.2990 N   0  0  0  0  0  0  0  0  0  0  0  0
    1.3140   -0.0250    3.6277 C   0  0  0  0  0  0  0  0  0  0  0  0
    2.5424   -0.0163    4.1801 O   0  0  0  0  0  0  0  0  0  0  0  0
    0.1997   -0.0404    4.4685 C   0  0  1  0  0  0  0  0  0  0  0  0
    0.2547   -0.0195    5.8822 N   0  0  0  0  0  0  0  0  0  0  0  0
   -2.0993    0.3355    5.4952 H   0  0  0  0  0  0  0  0  0  0  0  0
   -3.0422    0.2503    4.0448 H   0  0  0  0  0  0  0  0  0  0  0  0
   -2.2553   -0.0268   -0.4525 Au  0  0  0  0  0  0  0  0  0  0  0  0
    3.1717    0.0129    3.4412 H   0  0  0  0  0  0  0  0  0  0  0  0
   -0.0293   -0.9144    6.2862 H   0  0  0  0  0  0  0  0  0  0  0  0
    1.1978    0.1824    6.2071 H   0  0  0  0  0  0  0  0  0  0  0  0
  1 11  1  0  0  0  0
  2  9  1  0  0  0  0
  2  1  1  0  0  0  0
  3  2  2  0  0  0  0
  4  6  2  0  0  0  0
  4  3  2  0  0  0  0
  5  4  1  0  0  0  0
  6  7  2  0  0  0  0
  7  8  1  0  0  0  0
  7  9  1  0  0  0  0
  9 10  1  1  0  0  0
 10 16  1  0  0  0  0
 10 15  1  0  0  0  0
 12  1  1  0  0  0  0
 13  5  1  0  0  0  0
 14  8  1  0  0  0  0
M  RAD  1   9   2
M  END
