003-875-056.xyz
 OpenBabel07262113403D
COc1cc(ccc1O)/C=C/1\C(=NC(=NC1=O)S)O
 29 30  0  0  0  0  0  0  0  0999 V2000
   -5.4697    0.0315    6.8437 C   0  0  0  0  0  0  0  0  0  0  0  0
   -4.7799    0.0286    8.0736 O   0  0  0  0  0  0  0  0  0  0  0  0
   -3.4292    0.0216    8.0524 C   0  0  0  0  0  0  0  0  0  0  0  0
   -2.6535    0.0172    6.9020 C   0  0  0  0  0  0  0  0  0  0  0  0
   -1.2354    0.0101    6.9654 C   0  0  0  0  0  0  0  0  0  0  0  0
   -0.3132    0.0055    5.8548 C   0  0  0  0  0  0  0  0  0  0  0  0
   -0.3346    0.0029    4.4785 C   0  0  0  0  0  0  0  0  0  0  0  0
   -1.4365    0.0011    3.5401 C   0  0  0  0  0  0  0  0  0  0  0  0
   -2.7011   -0.0001    3.9814 O   0  0  0  0  0  0  0  0  0  0  0  0
   -1.2862   -0.0002    2.2487 N   0  0  0  0  0  0  0  0  0  0  0  0
   -0.0000    0.0000    1.7625 C   0  0  0  0  0  0  0  0  0  0  0  0
    0.0000    0.0000    0.0000 S   0  0  0  0  0  0  0  0  0  0  0  0
    1.1066   -0.0000    2.4448 N   0  0  0  0  0  0  0  0  0  0  0  0
    1.0445    0.0005    3.8306 C   0  0  0  0  0  0  0  0  0  0  0  0
    2.0577   -0.0004    4.5082 O   0  0  0  0  0  0  0  0  0  0  0  0
   -0.6342    0.0079    8.2455 C   0  0  0  0  0  0  0  0  0  0  0  0
   -1.4040    0.0119    9.4030 C   0  0  0  0  0  0  0  0  0  0  0  0
   -2.7997    0.0187    9.3288 C   0  0  0  0  0  0  0  0  0  0  0  0
   -3.5997    0.0230   10.4090 O   0  0  0  0  0  0  0  0  0  0  0  0
   -5.2287    0.9273    6.2439 H   0  0  0  0  0  0  0  0  0  0  0  0
   -5.2374   -0.8670    6.2445 H   0  0  0  0  0  0  0  0  0  0  0  0
   -6.5400    0.0368    7.0862 H   0  0  0  0  0  0  0  0  0  0  0  0
   -3.1297    0.0193    5.9305 H   0  0  0  0  0  0  0  0  0  0  0  0
    0.7320    0.0038    6.1885 H   0  0  0  0  0  0  0  0  0  0  0  0
   -3.2502   -0.0020    3.1760 H   0  0  0  0  0  0  0  0  0  0  0  0
    2.2858    0.0006   -0.3405 Au  0  0  0  0  0  0  0  0  0  0  0  0
    0.4543    0.0028    8.3237 H   0  0  0  0  0  0  0  0  0  0  0  0
   -0.9233    0.0099   10.3856 H   0  0  0  0  0  0  0  0  0  0  0  0
   -3.0592    0.0204   11.2109 H   0  0  0  0  0  0  0  0  0  0  0  0
  1 22  1  0  0  0  0
  1  2  1  0  0  0  0
  3  2  1  0  0  0  0
  3 18  2  0  0  0  0
  4  5  2  0  0  0  0
  4  3  1  0  0  0  0
  5 16  1  0  0  0  0
  6 24  1  0  0  0  0
  6  5  1  0  0  0  0
  7  6  2  0  0  0  0
  8  9  1  0  0  0  0
  8  7  1  0  0  0  0
 10  8  2  0  0  0  0
 11 10  2  0  0  0  0
 11 13  2  0  0  0  0
 12 11  1  0  0  0  0
 13 14  2  0  0  0  0
 14  7  1  0  0  0  0
 14 15  2  0  0  0  0
 16 27  1  0  0  0  0
 16 17  2  0  0  0  0
 17 28  1  0  0  0  0
 18 17  1  0  0  0  0
 18 19  1  0  0  0  0
 19 29  1  0  0  0  0
 20  1  1  0  0  0  0
 21  1  1  0  0  0  0
 23  4  1  0  0  0  0
 25  9  1  0  0  0  0
 26 12  1  0  0  0  0
M  END
