003-012-523.xyz
 OpenBabel07262113403D
Sc1nnc(s1)NC(=O)c1ccco1
 19 20  0  0  0  0  0  0  0  0999 V2000
    0.0000    0.0000    0.0000 S   0  0  0  0  0  0  0  0  0  0  0  0
   -0.0000   -0.0000    1.7498 C   0  0  0  0  0  0  0  0  0  0  0  0
   -1.0692    0.0983    2.4915 N   0  0  0  0  0  0  0  0  0  0  0  0
   -0.8270    0.2039    3.8113 N   0  0  0  0  0  0  0  0  0  0  0  0
    0.4460    0.1607    4.1057 C   0  0  0  0  0  0  0  0  0  0  0  0
    0.9630    0.2313    5.3812 N   0  0  0  0  0  0  0  0  0  0  0  0
    0.3285   -0.2320    6.5505 C   0  0  0  0  0  0  0  0  0  0  0  0
   -0.6881   -0.8777    6.5573 O   0  0  0  0  0  0  0  0  0  0  0  0
    1.0629    0.1662    7.7706 C   0  0  0  0  0  0  0  0  0  0  0  0
    2.0268    1.1119    8.0418 C   0  0  0  0  0  0  0  0  0  0  0  0
    2.2863    1.0288    9.4437 C   0  0  0  0  0  0  0  0  0  0  0  0
    1.4594    0.0433    9.9158 C   0  0  0  0  0  0  0  0  0  0  0  0
    0.7204   -0.4765    8.9162 O   0  0  0  0  0  0  0  0  0  0  0  0
    1.4944    0.0000    2.7062 S   0  0  0  0  0  0  0  0  0  0  0  0
    0.3939   -2.2230   -0.4809 Au  0  0  0  0  0  0  0  0  0  0  0  0
    1.9355    0.5019    5.4641 H   0  0  0  0  0  0  0  0  0  0  0  0
    2.4749    1.8087    7.3364 H   0  0  0  0  0  0  0  0  0  0  0  0
    2.9852    1.6264   10.0242 H   0  0  0  0  0  0  0  0  0  0  0  0
    1.2958   -0.3804   10.9033 H   0  0  0  0  0  0  0  0  0  0  0  0
  1  2  1  0  0  0  0
  2  3  2  0  0  0  0
  2 14  1  0  0  0  0
  3  4  1  0  0  0  0
  4  5  2  0  0  0  0
  5  6  1  0  0  0  0
  6 16  1  0  0  0  0
  6  7  1  0  0  0  0
  7  8  2  0  0  0  0
  7  9  1  0  0  0  0
  9 10  2  0  0  0  0
  9 13  1  0  0  0  0
 10 11  1  0  0  0  0
 11 12  2  0  0  0  0
 11 18  1  0  0  0  0
 12 19  1  0  0  0  0
 13 12  1  0  0  0  0
 14  5  1  0  0  0  0
 15  1  1  0  0  0  0
 17 10  1  0  0  0  0
M  END
