003-850-055.xyz
 OpenBabel07262113403D
SCCc1ccccn1
 18 19  0  0  0  0  0  0  0  0999 V2000
    0.0000    0.0000    0.0000 S   0  0  0  0  0  0  0  0  0  0  0  0
    0.0000   -0.0000    1.8602 C   0  0  0  0  0  0  0  0  0  0  0  0
    1.3708   -0.0000    2.5898 C   0  0  0  0  0  0  0  0  0  0  0  0
    1.9726   -1.3596    2.8761 C   0  0  0  0  0  0  0  0  0  0  0  0
    1.7131   -1.9938    4.1006 C   0  0  0  0  0  0  0  0  0  0  0  0
    2.2582   -3.2471    4.3719 C   0  0  0  0  0  0  0  0  0  0  0  0
    3.0684   -3.8515    3.4093 C   0  0  0  0  0  0  0  0  0  0  0  0
    3.2844   -3.1716    2.2137 C   0  0  0  0  0  0  0  0  0  0  0  0
    2.7532   -1.9678    1.9494 N   0  0  0  0  0  0  0  0  0  0  0  0
    1.8946   -1.3387   -0.1472 Au  0  0  0  0  0  0  0  0  0  0  0  0
   -0.5306    0.9253    2.1337 H   0  0  0  0  0  0  0  0  0  0  0  0
   -0.6098   -0.8422    2.2255 H   0  0  0  0  0  0  0  0  0  0  0  0
    1.2241    0.4913    3.5656 H   0  0  0  0  0  0  0  0  0  0  0  0
    2.0851    0.6144    2.0217 H   0  0  0  0  0  0  0  0  0  0  0  0
    1.0835   -1.4906    4.8370 H   0  0  0  0  0  0  0  0  0  0  0  0
    2.0582   -3.7429    5.3246 H   0  0  0  0  0  0  0  0  0  0  0  0
    3.5282   -4.8270    3.5773 H   0  0  0  0  0  0  0  0  0  0  0  0
    3.9122   -3.6055    1.4305 H   0  0  0  0  0  0  0  0  0  0  0  0
  1  2  1  0  0  0  0
  2 11  1  0  0  0  0
  2 12  1  0  0  0  0
  2  3  1  0  0  0  0
  3  4  1  0  0  0  0
  3 13  1  0  0  0  0
  4  5  2  0  0  0  0
  5  6  1  0  0  0  0
  5 15  1  0  0  0  0
  6 16  1  0  0  0  0
  7 17  1  0  0  0  0
  7  6  1  0  0  0  0
  8  7  2  0  0  0  0
  9  8  1  0  0  0  0
  9  4  1  0  0  0  0
 10  1  1  0  0  0  0
 10  9  1  0  0  0  0
 14  3  1  0  0  0  0
 18  8  1  0  0  0  0
M  RAD  1   6   2
M  END
