004-782-416.xyz
 OpenBabel07262113403D
Sc1cc(F)c(cc1N)F
 15 15  0  0  0  0  0  0  0  0999 V2000
    0.0000    0.0000    0.0000 S   0  0  0  0  0  0  0  0  0  0  0  0
    0.0000   -0.0000    1.7625 C   0  0  0  0  0  0  0  0  0  0  0  0
   -1.2205   -0.0574    2.4616 C   0  0  0  0  0  0  0  0  0  0  0  0
   -1.2434   -0.1477    3.8411 C   0  0  0  0  0  0  0  0  0  0  0  0
   -2.3989   -0.2202    4.5137 F   0  0  0  0  0  0  0  0  0  0  0  0
   -0.0329   -0.1628    4.5505 C   0  0  0  0  0  0  0  0  0  0  0  0
    1.1834   -0.0866    3.8921 C   0  0  0  0  0  0  0  0  0  0  0  0
    1.2300   -0.0000    2.4853 C   0  0  0  0  0  0  0  0  0  0  0  0
    2.4206    0.1449    1.8250 N   0  0  0  0  0  0  0  0  0  0  0  0
   -0.0646   -0.2500    5.8808 F   0  0  0  0  0  0  0  0  0  0  0  0
    0.6115    2.1796   -0.5252 Au  0  0  0  0  0  0  0  0  0  0  0  0
   -2.1628   -0.0396    1.9126 H   0  0  0  0  0  0  0  0  0  0  0  0
    2.0983   -0.0909    4.4874 H   0  0  0  0  0  0  0  0  0  0  0  0
    2.4008   -0.0420    0.8265 H   0  0  0  0  0  0  0  0  0  0  0  0
    3.2743   -0.0897    2.3144 H   0  0  0  0  0  0  0  0  0  0  0  0
  1  2  1  0  0  0  0
  2  3  2  0  0  0  0
  2  8  1  0  0  0  0
  3  4  1  0  0  0  0
  4  5  1  0  0  0  0
  4  6  2  0  0  0  0
  6 10  1  0  0  0  0
  7 13  1  0  0  0  0
  7  6  1  0  0  0  0
  8  7  2  0  0  0  0
  9 15  1  0  0  0  0
  9  8  1  0  0  0  0
 11  1  1  0  0  0  0
 12  3  1  0  0  0  0
 14  9  1  0  0  0  0
M  END
