004-916-818.xyz
 OpenBabel07262113403D
Sc1ncc(c(n1)N)[N+](=O)[O-]
 15 15  0  0  1  0  0  0  0  0999 V2000
    0.0000    0.0000    0.0000 S   0  0  0  0  0  0  0  0  0  0  0  0
   -0.0000    0.0000    1.7616 C   0  0  0  0  0  0  0  0  0  0  0  0
    1.1767    0.0000    2.4319 N   0  0  0  0  0  0  0  0  0  0  0  0
    1.0814   -0.0002    3.7514 C   0  0  0  0  0  0  0  0  0  0  0  0
   -0.1424   -0.0003    4.4290 C   0  0  1  0  0  0  0  0  0  0  0  0
   -1.3340   -0.0003    3.6367 C   0  0  0  0  0  0  0  0  0  0  0  0
   -1.2115   -0.0001    2.2974 N   0  0  0  0  0  0  0  0  0  0  0  0
   -2.5707   -0.0004    4.1460 N   0  0  0  0  0  0  0  0  0  0  0  0
   -0.1470   -0.0006    5.8712 N   0  0  0  0  0  0  0  0  0  0  0  0
   -1.2387   -0.0009    6.4494 O   0  0  0  0  0  0  0  0  0  0  0  0
    0.9251   -0.0004    6.4552 O   0  0  0  0  0  0  0  0  0  0  0  0
    2.2668    0.0021   -0.4278 Au  0  0  0  0  0  0  0  0  0  0  0  0
    2.0036   -0.0003    4.3386 H   0  0  0  0  0  0  0  0  0  0  0  0
   -2.6788   -0.0008    5.1552 H   0  0  0  0  0  0  0  0  0  0  0  0
   -3.3483   -0.0003    3.4980 H   0  0  0  0  0  0  0  0  0  0  0  0
  1  2  1  0  0  0  0
  2  7  2  0  0  0  0
  2  3  2  0  0  0  0
  3  4  2  0  0  0  0
  4 13  1  0  0  0  0
  4  5  1  0  0  0  0
  5  9  1  6  0  0  0
  6  8  1  0  0  0  0
  6  5  1  0  0  0  0
  7  6  2  0  0  0  0
  8 14  1  0  0  0  0
  9 10  2  0  0  0  0
  9 11  2  0  0  0  0
 12  1  1  0  0  0  0
 15  8  1  0  0  0  0
M  RAD  1   5   2
M  END
