004-966-691.xyz
 OpenBabel07262113403D
SC1=NC(=O)/C(=C\c2cc3OCOc3cc2Cl)/S1
 24 26  0  0  0  0  0  0  0  0999 V2000
    0.0000    0.0000    0.0000 S   0  0  0  0  0  0  0  0  0  0  0  0
   -0.0000    0.0000    1.7386 C   0  0  0  0  0  0  0  0  0  0  0  0
   -1.0362   -0.0063    2.5052 N   0  0  0  0  0  0  0  0  0  0  0  0
   -0.7144   -0.0151    3.8734 C   0  0  0  0  0  0  0  0  0  0  0  0
   -1.5312    0.0287    4.7609 O   0  0  0  0  0  0  0  0  0  0  0  0
    0.7874   -0.0374    4.0903 C   0  0  0  0  0  0  0  0  0  0  0  0
    1.6081    0.0000    2.5200 S   0  0  0  0  0  0  0  0  0  0  0  0
    1.4469    0.0061    5.2661 C   0  0  0  0  0  0  0  0  0  0  0  0
    0.8755   -0.0738    6.6209 C   0  0  0  0  0  0  0  0  0  0  0  0
    1.2228    0.9604    7.5308 C   0  0  0  0  0  0  0  0  0  0  0  0
    0.7108    0.9126    8.8080 C   0  0  0  0  0  0  0  0  0  0  0  0
    0.8991    1.7797    9.8479 O   0  0  0  0  0  0  0  0  0  0  0  0
    0.0370    1.3380   10.8924 C   0  0  0  0  0  0  0  0  0  0  0  0
   -0.4445    0.0420   10.5356 O   0  0  0  0  0  0  0  0  0  0  0  0
   -0.1045   -0.1423    9.2293 C   0  0  0  0  0  0  0  0  0  0  0  0
   -0.4282   -1.1902    8.3909 C   0  0  0  0  0  0  0  0  0  0  0  0
    0.0762   -1.1393    7.0772 C   0  0  0  0  0  0  0  0  0  0  0  0
   -0.2809   -2.5029    6.0507 Cl  0  0  0  0  0  0  0  0  0  0  0  0
   -2.3015   -0.0199   -0.2973 Au  0  0  0  0  0  0  0  0  0  0  0  0
    2.5332    0.1538    5.2310 H   0  0  0  0  0  0  0  0  0  0  0  0
    1.8600    1.7857    7.2111 H   0  0  0  0  0  0  0  0  0  0  0  0
    0.5988    1.2759   11.8379 H   0  0  0  0  0  0  0  0  0  0  0  0
   -0.8176    2.0346   10.9928 H   0  0  0  0  0  0  0  0  0  0  0  0
   -1.0417   -2.0265    8.7220 H   0  0  0  0  0  0  0  0  0  0  0  0
  1  2  1  0  0  0  0
  2  3  2  0  0  0  0
  2  7  1  0  0  0  0
  3  4  2  0  0  0  0
  4  6  1  0  0  0  0
  4  5  2  0  0  0  0
  6  8  2  0  0  0  0
  7  6  1  0  0  0  0
  8  9  1  0  0  0  0
  9 17  2  0  0  0  0
  9 10  1  0  0  0  0
 10 11  2  0  0  0  0
 11 15  1  0  0  0  0
 11 12  1  0  0  0  0
 12 13  1  0  0  0  0
 13 23  1  0  0  0  0
 13 22  1  0  0  0  0
 14 13  1  0  0  0  0
 15 14  1  0  0  0  0
 16 24  1  0  0  0  0
 16 15  2  0  0  0  0
 17 16  1  0  0  0  0
 18 17  1  0  0  0  0
 19  1  1  0  0  0  0
 20  8  1  0  0  0  0
 21 10  1  0  0  0  0
M  END
