004-956-287.xyz
 OpenBabel07262113403D
SC1=N/C(=C/c2ccccc2F)/C(=O)N1c1ccccc1
 32 34  0  0  0  0  0  0  0  0999 V2000
    3.7053    0.0142    6.4717 F   0  0  0  0  0  0  0  0  0  0  0  0
    2.5194    0.0811    7.1005 C   0  0  0  0  0  0  0  0  0  0  0  0
    2.5215    0.1232    8.4878 C   0  0  0  0  0  0  0  0  0  0  0  0
    1.3013    0.1928    9.1639 C   0  0  0  0  0  0  0  0  0  0  0  0
    0.1045    0.2190    8.4394 C   0  0  0  0  0  0  0  0  0  0  0  0
    0.1174    0.1764    7.0475 C   0  0  0  0  0  0  0  0  0  0  0  0
    1.3339    0.1052    6.3284 C   0  0  0  0  0  0  0  0  0  0  0  0
    1.4755    0.0552    4.8858 C   0  0  0  0  0  0  0  0  0  0  0  0
    0.5846    0.0538    3.8517 C   0  0  0  0  0  0  0  0  0  0  0  0
    1.0412    0.0000    2.5278 N   0  0  0  0  0  0  0  0  0  0  0  0
   -0.0000    0.0000    1.7529 C   0  0  0  0  0  0  0  0  0  0  0  0
    0.0000    0.0000    0.0000 S   0  0  0  0  0  0  0  0  0  0  0  0
   -1.2126    0.0458    2.4497 N   0  0  0  0  0  0  0  0  0  0  0  0
   -0.9127    0.1013    3.8283 C   0  0  0  0  0  0  0  0  0  0  0  0
   -1.7491    0.1705    4.7057 O   0  0  0  0  0  0  0  0  0  0  0  0
   -2.5285    0.0319    1.9128 C   0  0  0  0  0  0  0  0  0  0  0  0
   -2.9058   -0.9644    1.0033 C   0  0  0  0  0  0  0  0  0  0  0  0
   -4.1970   -0.9635    0.4725 C   0  0  0  0  0  0  0  0  0  0  0  0
   -5.1194    0.0087    0.8675 C   0  0  0  0  0  0  0  0  0  0  0  0
   -4.7447    0.9856    1.7949 C   0  0  0  0  0  0  0  0  0  0  0  0
   -3.4507    1.0051    2.3160 C   0  0  0  0  0  0  0  0  0  0  0  0
    3.4767    0.1008    9.0148 H   0  0  0  0  0  0  0  0  0  0  0  0
    1.2889    0.2265   10.2557 H   0  0  0  0  0  0  0  0  0  0  0  0
   -0.8512    0.2734    8.9650 H   0  0  0  0  0  0  0  0  0  0  0  0
   -0.8154    0.1972    6.4860 H   0  0  0  0  0  0  0  0  0  0  0  0
    2.5100    0.0062    4.5389 H   0  0  0  0  0  0  0  0  0  0  0  0
    2.3023    0.0813   -0.2624 Au  0  0  0  0  0  0  0  0  0  0  0  0
   -2.1899   -1.7363    0.7181 H   0  0  0  0  0  0  0  0  0  0  0  0
   -4.4851   -1.7363   -0.2437 H   0  0  0  0  0  0  0  0  0  0  0  0
   -6.1317    0.0024    0.4572 H   0  0  0  0  0  0  0  0  0  0  0  0
   -5.4635    1.7448    2.1115 H   0  0  0  0  0  0  0  0  0  0  0  0
   -3.1510    1.7639    3.0384 H   0  0  0  0  0  0  0  0  0  0  0  0
  1  2  1  0  0  0  0
  2  3  2  0  0  0  0
  3 22  1  0  0  0  0
  3  4  1  0  0  0  0
  4 23  1  0  0  0  0
  5 24  1  0  0  0  0
  5  4  2  0  0  0  0
  6  5  1  0  0  0  0
  7  6  2  0  0  0  0
  7  2  1  0  0  0  0
  8  7  1  0  0  0  0
  9  8  1  0  0  0  0
 10  9  2  0  0  0  0
 11 13  1  0  0  0  0
 11 10  2  0  0  0  0
 12 11  1  0  0  0  0
 13 14  1  0  0  0  0
 14  9  1  0  0  0  0
 14 15  2  0  0  0  0
 16 21  1  0  0  0  0
 16 13  1  0  0  0  0
 17 16  2  0  0  0  0
 18 19  2  0  0  0  0
 18 17  1  0  0  0  0
 19 20  1  0  0  0  0
 20 31  1  0  0  0  0
 20 21  2  0  0  0  0
 21 32  1  0  0  0  0
 25  6  1  0  0  0  0
 26  8  1  0  0  0  0
 27 12  1  0  0  0  0
 28 17  1  0  0  0  0
 29 18  1  0  0  0  0
 30 19  1  0  0  0  0
M  RAD  1   8   2
M  END
