004-284-751.xyz
 OpenBabel07262113403D
Brc1ccc(c(c1)Cl)S(=O)(=O)N1CCN(CC1)C(=O)c1cccnc1S
 41 43  0  0  1  0  0  0  0  0999 V2000
   -5.9324   -5.9012   -6.4661 Br  0  0  0  0  0  0  0  0  0  0  0  0
   -5.4525   -5.4977   -4.6738 C   0  0  0  0  0  0  0  0  0  0  0  0
   -6.4526   -5.2866   -3.7213 C   0  0  0  0  0  0  0  0  0  0  0  0
   -6.0822   -4.9880   -2.4113 C   0  0  0  0  0  0  0  0  0  0  0  0
   -4.7345   -4.8979   -2.0512 C   0  0  0  0  0  0  0  0  0  0  0  0
   -3.7401   -5.1194   -3.0177 C   0  0  0  0  0  0  0  0  0  0  0  0
   -4.0998   -5.4160   -4.3348 C   0  0  0  0  0  0  0  0  0  0  0  0
   -2.0472   -5.0238   -2.6397 Cl  0  0  0  0  0  0  0  0  0  0  0  0
   -4.3620   -4.5458   -0.3277 S   0  0  0  0  0  0  0  0  0  0  0  0
   -5.6552   -4.2574    0.3074 O   0  0  0  0  0  0  0  0  0  0  0  0
   -3.4934   -5.5967    0.1985 O   0  0  0  0  0  0  0  0  0  0  0  0
   -3.4581   -3.1390   -0.4308 N   0  0  0  0  0  0  0  0  0  0  0  0
   -2.1655   -3.0870    0.2568 C   0  0  0  0  0  0  0  0  0  0  0  0
   -2.3246   -2.5456    1.6796 C   0  0  0  0  0  0  0  0  0  0  0  0
   -3.0608   -1.2844    1.6628 N   0  0  0  0  0  0  0  0  0  0  0  0
   -4.3657   -1.3515    1.0103 C   0  0  0  0  0  0  0  0  0  0  0  0
   -4.1965   -1.8734   -0.4181 C   0  0  0  0  0  0  0  0  0  0  0  0
   -2.5618   -0.0760    2.0379 C   0  0  0  0  0  0  0  0  0  0  0  0
   -3.2060    0.9694    1.9436 O   0  0  0  0  0  0  0  0  0  0  0  0
   -1.1643   -0.0589    2.5991 C   0  0  2  0  0  0  0  0  0  0  0  0
   -0.9964   -0.0331    3.9855 C   0  0  0  0  0  0  0  0  0  0  0  0
    0.2893   -0.0189    4.5280 C   0  0  0  0  0  0  0  0  0  0  0  0
    1.3698   -0.0287    3.6439 C   0  0  0  0  0  0  0  0  0  0  0  0
    1.2234    0.0000    2.3195 N   0  0  0  0  0  0  0  0  0  0  0  0
   -0.0000   -0.0000    1.7936 C   0  0  0  0  0  0  0  0  0  0  0  0
    0.0000    0.0000    0.0000 S   0  0  0  0  0  0  0  0  0  0  0  0
   -7.5046   -5.3553   -3.9992 H   0  0  0  0  0  0  0  0  0  0  0  0
   -6.8350   -4.8177   -1.6406 H   0  0  0  0  0  0  0  0  0  0  0  0
   -3.3231   -5.5809   -5.0808 H   0  0  0  0  0  0  0  0  0  0  0  0
   -1.5063   -2.4221   -0.3212 H   0  0  0  0  0  0  0  0  0  0  0  0
   -1.7299   -4.0920    0.2719 H   0  0  0  0  0  0  0  0  0  0  0  0
   -2.8852   -3.2782    2.2867 H   0  0  0  0  0  0  0  0  0  0  0  0
   -1.3434   -2.3973    2.1444 H   0  0  0  0  0  0  0  0  0  0  0  0
   -4.8013   -0.3456    1.0241 H   0  0  0  0  0  0  0  0  0  0  0  0
   -5.0208   -2.0402    1.5676 H   0  0  0  0  0  0  0  0  0  0  0  0
   -5.1754   -2.0125   -0.8955 H   0  0  0  0  0  0  0  0  0  0  0  0
   -3.6200   -1.1502   -1.0186 H   0  0  0  0  0  0  0  0  0  0  0  0
   -1.8764   -0.0420    4.6335 H   0  0  0  0  0  0  0  0  0  0  0  0
    0.4493   -0.0070    5.6075 H   0  0  0  0  0  0  0  0  0  0  0  0
    2.3989   -0.0465    4.0200 H   0  0  0  0  0  0  0  0  0  0  0  0
   -1.7650    1.4105   -0.4922 Au  0  0  0  0  0  0  0  0  0  0  0  0
  1  2  1  0  0  0  0
  2  7  2  0  0  0  0
  2  3  1  0  0  0  0
  3  4  2  0  0  0  0
  4  5  1  0  0  0  0
  4 28  1  0  0  0  0
  5  9  1  0  0  0  0
  6  8  1  0  0  0  0
  6  5  2  0  0  0  0
  7  6  1  0  0  0  0
  9 11  2  0  0  0  0
  9 10  2  0  0  0  0
 12 17  1  0  0  0  0
 12  9  1  0  0  0  0
 12 13  1  0  0  0  0
 13 31  1  0  0  0  0
 13 14  1  0  0  0  0
 14 33  1  0  0  0  0
 14 32  1  0  0  0  0
 15 14  1  0  0  0  0
 15 18  1  0  0  0  0
 16 34  1  0  0  0  0
 16 35  1  0  0  0  0
 16 15  1  0  0  0  0
 17 16  1  0  0  0  0
 19 18  2  0  0  0  0
 20 18  1  6  0  0  0
 20 21  1  0  0  0  0
 21 22  2  0  0  0  0
 21 38  1  0  0  0  0
 22 39  1  0  0  0  0
 23 40  1  0  0  0  0
 23 22  1  0  0  0  0
 24 23  2  0  0  0  0
 25 24  2  0  0  0  0
 25 20  1  0  0  0  0
 26 25  1  0  0  0  0
 27  3  1  0  0  0  0
 29  7  1  0  0  0  0
 30 13  1  0  0  0  0
 36 17  1  0  0  0  0
 37 17  1  0  0  0  0
 41 26  1  0  0  0  0
M  RAD  1  20   2
M  END
