004-436-098.xyz
 OpenBabel07262113403D
Fc1ccc(c(c1)C(=O)c1cc(S)c2n(c1)c(=O)c1c(n2)sc(c1C)C)O
 40 43  0  0  1  0  0  0  0  0999 V2000
   -7.2146   -0.0385    4.1827 C   0  0  0  0  0  0  0  0  0  0  0  0
   -5.7309   -0.0329    3.9899 C   0  0  0  0  0  0  0  0  0  0  0  0
   -5.1084   -0.0288    2.3337 S   0  0  0  0  0  0  0  0  0  0  0  0
   -3.4638   -0.0222    2.9064 C   0  0  0  0  0  0  0  0  0  0  0  0
   -2.4094   -0.0178    2.0824 N   0  0  0  0  0  0  0  0  0  0  0  0
   -1.1924   -0.0111    2.6009 C   0  0  0  0  0  0  0  0  0  0  0  0
    0.0000   -0.0000    1.7688 C   0  0  0  0  0  0  0  0  0  0  0  0
    0.0000    0.0000    0.0000 S   0  0  0  0  0  0  0  0  0  0  0  0
    1.2355    0.0000    2.3871 C   0  0  0  0  0  0  0  0  0  0  0  0
    1.3650   -0.0106    3.7988 C   0  0  0  0  0  0  0  0  0  0  0  0
    0.2305    0.0012    4.5657 C   0  0  0  0  0  0  0  0  0  0  0  0
   -1.0111   -0.0087    3.9911 N   0  0  0  0  0  0  0  0  0  0  0  0
   -2.1410   -0.0176    4.9480 C   0  0  0  0  0  0  0  0  0  0  0  0
   -1.8958   -0.0188    6.1371 O   0  0  0  0  0  0  0  0  0  0  0  0
   -3.4189   -0.0235    4.3032 C   0  0  1  0  0  0  0  0  0  0  0  0
   -4.7251   -0.0300    4.9251 C   0  0  0  0  0  0  0  0  0  0  0  0
   -4.9110   -0.0319    6.4143 C   0  0  0  0  0  0  0  0  0  0  0  0
    2.6827    0.0326    4.5099 C   0  0  0  0  0  0  0  0  0  0  0  0
    2.7526    0.4447    5.6530 O   0  0  0  0  0  0  0  0  0  0  0  0
    3.9315   -0.3727    3.7809 C   0  0  0  0  0  0  0  0  0  0  0  0
    5.0822    0.3967    4.0101 C   0  0  0  0  0  0  0  0  0  0  0  0
    6.2753    0.0719    3.3811 C   0  0  0  0  0  0  0  0  0  0  0  0
    7.3618    0.8306    3.5874 F   0  0  0  0  0  0  0  0  0  0  0  0
    6.3661   -1.0332    2.5368 C   0  0  0  0  0  0  0  0  0  0  0  0
    5.2381   -1.8264    2.3344 C   0  0  0  0  0  0  0  0  0  0  0  0
    4.0206   -1.5131    2.9548 C   0  0  0  0  0  0  0  0  0  0  0  0
    2.9218   -2.2968    2.8149 O   0  0  0  0  0  0  0  0  0  0  0  0
   -7.6864    0.8493    3.7291 H   0  0  0  0  0  0  0  0  0  0  0  0
   -7.4670   -0.0423    5.2512 H   0  0  0  0  0  0  0  0  0  0  0  0
   -7.6804   -0.9268    3.7241 H   0  0  0  0  0  0  0  0  0  0  0  0
   -2.2918    0.0572   -0.4560 Au  0  0  0  0  0  0  0  0  0  0  0  0
    2.1320    0.0227    1.7672 H   0  0  0  0  0  0  0  0  0  0  0  0
    0.2386    0.0149    5.6537 H   0  0  0  0  0  0  0  0  0  0  0  0
   -4.4241   -0.9091    6.8669 H   0  0  0  0  0  0  0  0  0  0  0  0
   -4.4306    0.8483    6.8681 H   0  0  0  0  0  0  0  0  0  0  0  0
   -5.9723   -0.0360    6.6951 H   0  0  0  0  0  0  0  0  0  0  0  0
    5.0293    1.2542    4.6819 H   0  0  0  0  0  0  0  0  0  0  0  0
    7.3169   -1.2667    2.0548 H   0  0  0  0  0  0  0  0  0  0  0  0
    5.3033   -2.7113    1.6948 H   0  0  0  0  0  0  0  0  0  0  0  0
    3.1004   -3.0097    2.1878 H   0  0  0  0  0  0  0  0  0  0  0  0
  1 29  1  0  0  0  0
  2  1  1  0  0  0  0
  2 16  2  0  0  0  0
  3  4  1  0  0  0  0
  3  2  1  0  0  0  0
  5  6  2  0  0  0  0
  5  4  2  0  0  0  0
  6 12  1  0  0  0  0
  7  9  2  0  0  0  0
  7  6  1  0  0  0  0
  8  7  1  0  0  0  0
  9 10  1  0  0  0  0
 10 18  1  0  0  0  0
 10 11  2  0  0  0  0
 11 33  1  0  0  0  0
 12 11  1  0  0  0  0
 12 13  1  0  0  0  0
 13 14  2  0  0  0  0
 15  4  1  1  0  0  0
 15 16  1  0  0  0  0
 15 13  1  0  0  0  0
 16 17  1  0  0  0  0
 17 36  1  0  0  0  0
 17 34  1  0  0  0  0
 17 35  1  0  0  0  0
 18 19  2  0  0  0  0
 20 21  1  0  0  0  0
 20 18  1  0  0  0  0
 21 37  1  0  0  0  0
 22 23  1  0  0  0  0
 22 21  2  0  0  0  0
 24 22  1  0  0  0  0
 25 24  2  0  0  0  0
 25 26  1  0  0  0  0
 26 20  2  0  0  0  0
 27 26  1  0  0  0  0
 28  1  1  0  0  0  0
 30  1  1  0  0  0  0
 31  8  1  0  0  0  0
 32  9  1  0  0  0  0
 38 24  1  0  0  0  0
 39 25  1  0  0  0  0
 40 27  1  0  0  0  0
M  RAD  1  15   2
M  END
