005-925-285.xyz
 OpenBabel07262113403D
COc1ccc(cc1n1c(S)nnc1c1ccc2c(c1)nccn2)Cl
 37 40  0  0  0  0  0  0  0  0999 V2000
   -3.0156    3.3855    3.6638 C   0  0  0  0  0  0  0  0  0  0  0  0
   -2.3924    2.2254    3.1517 O   0  0  0  0  0  0  0  0  0  0  0  0
   -3.1105    1.3565    2.4134 C   0  0  0  0  0  0  0  0  0  0  0  0
   -4.4147    1.5757    1.9513 C   0  0  0  0  0  0  0  0  0  0  0  0
   -5.0586    0.6120    1.1701 C   0  0  0  0  0  0  0  0  0  0  0  0
   -4.4071   -0.5792    0.8499 C   0  0  0  0  0  0  0  0  0  0  0  0
   -5.2072   -1.7735   -0.1382 Cl  0  0  0  0  0  0  0  0  0  0  0  0
   -3.1123   -0.8222    1.3145 C   0  0  0  0  0  0  0  0  0  0  0  0
   -2.4730    0.1364    2.0954 C   0  0  0  0  0  0  0  0  0  0  0  0
   -1.1422   -0.0687    2.5406 N   0  0  0  0  0  0  0  0  0  0  0  0
    0.0000    0.0000    1.7433 C   0  0  0  0  0  0  0  0  0  0  0  0
    0.0000    0.0000    0.0000 S   0  0  0  0  0  0  0  0  0  0  0  0
    1.0706   -0.0000    2.5131 N   0  0  0  0  0  0  0  0  0  0  0  0
    0.6622   -0.0594    3.8052 N   0  0  0  0  0  0  0  0  0  0  0  0
   -0.6592   -0.0731    3.8332 C   0  0  0  0  0  0  0  0  0  0  0  0
   -1.4623   -0.0551    5.0586 C   0  0  0  0  0  0  0  0  0  0  0  0
   -2.7898   -0.5791    5.1061 C   0  0  0  0  0  0  0  0  0  0  0  0
   -3.5249   -0.5374    6.2683 C   0  0  0  0  0  0  0  0  0  0  0  0
   -2.9712    0.0231    7.4493 C   0  0  0  0  0  0  0  0  0  0  0  0
   -3.7078    0.0669    8.5921 N   0  0  0  0  0  0  0  0  0  0  0  0
   -3.1298    0.5914    9.6480 C   0  0  0  0  0  0  0  0  0  0  0  0
   -1.7972    1.0973    9.6151 C   0  0  0  0  0  0  0  0  0  0  0  0
   -1.0622    1.0715    8.5289 N   0  0  0  0  0  0  0  0  0  0  0  0
   -1.6307    0.5305    7.4146 C   0  0  0  0  0  0  0  0  0  0  0  0
   -0.8947    0.4780    6.2069 C   0  0  0  0  0  0  0  0  0  0  0  0
   -3.8895    3.1267    4.2857 H   0  0  0  0  0  0  0  0  0  0  0  0
   -2.2649    3.8889    4.2852 H   0  0  0  0  0  0  0  0  0  0  0  0
   -3.3323    4.0669    2.8549 H   0  0  0  0  0  0  0  0  0  0  0  0
   -4.9375    2.5009    2.1911 H   0  0  0  0  0  0  0  0  0  0  0  0
   -6.0718    0.7883    0.8067 H   0  0  0  0  0  0  0  0  0  0  0  0
   -2.5919   -1.7453    1.0637 H   0  0  0  0  0  0  0  0  0  0  0  0
   -1.1833    1.9432   -0.4517 Au  0  0  0  0  0  0  0  0  0  0  0  0
   -3.2230   -1.0339    4.2160 H   0  0  0  0  0  0  0  0  0  0  0  0
   -4.5384   -0.9387    6.3213 H   0  0  0  0  0  0  0  0  0  0  0  0
   -3.7070    0.6344   10.5796 H   0  0  0  0  0  0  0  0  0  0  0  0
   -1.3554    1.5276   10.5221 H   0  0  0  0  0  0  0  0  0  0  0  0
    0.1223    0.8694    6.1911 H   0  0  0  0  0  0  0  0  0  0  0  0
  1 27  1  0  0  0  0
  1 26  1  0  0  0  0
  2  1  1  0  0  0  0
  3  2  1  0  0  0  0
  4 29  1  0  0  0  0
  4  3  2  0  0  0  0
  5  4  1  0  0  0  0
  6  5  2  0  0  0  0
  6  8  1  0  0  0  0
  7  6  1  0  0  0  0
  8  9  2  0  0  0  0
  9  3  1  0  0  0  0
  9 10  1  0  0  0  0
 10 15  1  0  0  0  0
 11 13  2  0  0  0  0
 11 10  1  0  0  0  0
 12 11  1  0  0  0  0
 13 14  1  0  0  0  0
 14 15  2  0  0  0  0
 15 16  1  0  0  0  0
 16 17  1  0  0  0  0
 16 25  2  0  0  0  0
 17 18  2  0  0  0  0
 18 34  1  0  0  0  0
 18 19  1  0  0  0  0
 19 20  2  0  0  0  0
 20 21  2  0  0  0  0
 21 35  1  0  0  0  0
 22 21  1  0  0  0  0
 22 36  1  0  0  0  0
 23 22  2  0  0  0  0
 24 19  1  0  0  0  0
 24 23  2  0  0  0  0
 25 24  1  0  0  0  0
 28  1  1  0  0  0  0
 30  5  1  0  0  0  0
 31  8  1  0  0  0  0
 32 12  1  0  0  0  0
 33 17  1  0  0  0  0
 37 25  1  0  0  0  0
M  END
