005-894-326.xyz
 OpenBabel07262113403D
Sc1[nH]c2c(n1)cc(cc2)S(=O)(=O)N
 21 22  0  0  0  0  0  0  0  0999 V2000
    0.0000    0.0000    0.0000 S   0  0  0  0  0  0  0  0  0  0  0  0
   -0.0000   -0.0000    1.7559 C   0  0  0  0  0  0  0  0  0  0  0  0
   -1.1993   -0.0016    2.4452 N   0  0  0  0  0  0  0  0  0  0  0  0
   -0.8991   -0.0028    3.7942 C   0  0  0  0  0  0  0  0  0  0  0  0
    0.5232   -0.0021    3.8415 C   0  0  0  0  0  0  0  0  0  0  0  0
    1.0408    0.0000    2.5578 N   0  0  0  0  0  0  0  0  0  0  0  0
    1.1762    0.0022    5.0790 C   0  0  0  0  0  0  0  0  0  0  0  0
    0.3730   -0.0005    6.2177 C   0  0  0  0  0  0  0  0  0  0  0  0
   -1.0344    0.0077    6.1710 C   0  0  0  0  0  0  0  0  0  0  0  0
   -1.6935    0.0045    4.9442 C   0  0  0  0  0  0  0  0  0  0  0  0
    1.1624   -0.0017    7.8186 S   0  0  0  0  0  0  0  0  0  0  0  0
    2.5811    0.3065    7.6175 O   0  0  0  0  0  0  0  0  0  0  0  0
    0.3304    0.7585    8.7545 O   0  0  0  0  0  0  0  0  0  0  0  0
    1.0060   -1.6166    8.3081 N   0  0  0  0  0  0  0  0  0  0  0  0
    2.2989    0.0537   -0.2694 Au  0  0  0  0  0  0  0  0  0  0  0  0
   -2.1214    0.0047    2.0287 H   0  0  0  0  0  0  0  0  0  0  0  0
    2.2630    0.0185    5.1574 H   0  0  0  0  0  0  0  0  0  0  0  0
   -1.5964    0.0293    7.1052 H   0  0  0  0  0  0  0  0  0  0  0  0
   -2.7839    0.0153    4.8924 H   0  0  0  0  0  0  0  0  0  0  0  0
    1.8686   -2.1288    8.1223 H   0  0  0  0  0  0  0  0  0  0  0  0
    0.7795   -1.6239    9.3036 H   0  0  0  0  0  0  0  0  0  0  0  0
  1  2  1  0  0  0  0
  2  3  1  0  0  0  0
  2  6  2  0  0  0  0
  3  4  1  0  0  0  0
  4  5  1  0  0  0  0
  4 10  2  0  0  0  0
  5  7  1  0  0  0  0
  6  5  2  0  0  0  0
  7 17  1  0  0  0  0
  7  8  1  0  0  0  0
  8 11  1  0  0  0  0
  9  8  2  0  0  0  0
  9 18  1  0  0  0  0
 10  9  1  0  0  0  0
 11 14  1  0  0  0  0
 11 13  2  0  0  0  0
 12 11  2  0  0  0  0
 14 21  1  0  0  0  0
 15  1  1  0  0  0  0
 16  3  1  0  0  0  0
 19 10  1  0  0  0  0
 20 14  1  0  0  0  0
M  RAD  1   7   2
M  END
