005-308-855.xyz
 OpenBabel07262113403D
Oc1cccc(c1)c1nnc(n1c1cccc2c1cccn2)S
 35 38  0  0  1  0  0  0  0  0999 V2000
   -4.9964   -0.8565    6.0512 O   0  0  0  0  0  0  0  0  0  0  0  0
   -3.7155   -0.4150    6.1471 C   0  0  0  0  0  0  0  0  0  0  0  0
   -3.1569    0.0321    7.3504 C   0  0  0  0  0  0  0  0  0  0  0  0
   -1.8259    0.4603    7.3751 C   0  0  0  0  0  0  0  0  0  0  0  0
   -1.0533    0.4566    6.2180 C   0  0  0  0  0  0  0  0  0  0  0  0
   -1.6157    0.0151    5.0034 C   0  0  0  0  0  0  0  0  0  0  0  0
   -2.9463   -0.4258    4.9769 C   0  0  0  0  0  0  0  0  0  0  0  0
   -0.7532    0.0074    3.8163 C   0  0  0  0  0  0  0  0  0  0  0  0
    0.5618    0.0055    3.8484 N   0  0  0  0  0  0  0  0  0  0  0  0
    1.0356   -0.0000    2.5713 N   0  0  0  0  0  0  0  0  0  0  0  0
   -0.0000    0.0000    1.7547 C   0  0  0  0  0  0  0  0  0  0  0  0
    0.0000    0.0000    0.0000 S   0  0  0  0  0  0  0  0  0  0  0  0
   -1.1686    0.0040    2.4855 N   0  0  0  0  0  0  0  0  0  0  0  0
   -2.4836    0.0900    1.9386 C   0  0  0  0  0  0  0  0  0  0  0  0
   -3.1543    1.2945    1.9476 C   0  0  0  0  0  0  0  0  0  0  0  0
   -4.4639    1.3822    1.4192 C   0  0  0  0  0  0  0  0  0  0  0  0
   -5.0773    0.2712    0.8820 C   0  0  0  0  0  0  0  0  0  0  0  0
   -4.4075   -0.9828    0.8528 C   0  0  0  0  0  0  0  0  0  0  0  0
   -5.0520   -2.0542    0.3147 N   0  0  0  0  0  0  0  0  0  0  0  0
   -4.4336   -3.2133    0.3044 C   0  0  0  0  0  0  0  0  0  0  0  0
   -3.1289   -3.4205    0.8264 C   0  0  0  0  0  0  0  0  0  0  0  0
   -2.4531   -2.3531    1.3714 C   0  0  0  0  0  0  0  0  0  0  0  0
   -3.0849   -1.0825    1.3949 C   0  0  2  0  0  0  0  0  0  0  0  0
   -5.4166   -0.8161    6.9200 H   0  0  0  0  0  0  0  0  0  0  0  0
   -3.7604    0.0412    8.2631 H   0  0  0  0  0  0  0  0  0  0  0  0
   -1.3913    0.8047    8.3165 H   0  0  0  0  0  0  0  0  0  0  0  0
   -0.0144    0.7854    6.2268 H   0  0  0  0  0  0  0  0  0  0  0  0
   -3.4148   -0.8021    4.0704 H   0  0  0  0  0  0  0  0  0  0  0  0
    2.3091   -0.0153   -0.2164 Au  0  0  0  0  0  0  0  0  0  0  0  0
   -2.6653    2.1720    2.3732 H   0  0  0  0  0  0  0  0  0  0  0  0
   -4.9837    2.3422    1.4390 H   0  0  0  0  0  0  0  0  0  0  0  0
   -6.0848    0.3105    0.4655 H   0  0  0  0  0  0  0  0  0  0  0  0
   -4.9767   -4.0583   -0.1365 H   0  0  0  0  0  0  0  0  0  0  0  0
   -2.6789   -4.4144    0.7888 H   0  0  0  0  0  0  0  0  0  0  0  0
   -1.4485   -2.4684    1.7811 H   0  0  0  0  0  0  0  0  0  0  0  0
  1  2  1  0  0  0  0
  1 24  1  0  0  0  0
  2  3  2  0  0  0  0
  3  4  1  0  0  0  0
  3 25  1  0  0  0  0
  4 26  1  0  0  0  0
  5 27  1  0  0  0  0
  5  4  2  0  0  0  0
  6  5  1  0  0  0  0
  7  6  2  0  0  0  0
  7  2  1  0  0  0  0
  8  9  2  0  0  0  0
  8  6  1  0  0  0  0
 10  9  1  0  0  0  0
 11 13  1  0  0  0  0
 11 10  2  0  0  0  0
 12 11  1  0  0  0  0
 13  8  1  0  0  0  0
 14 15  2  0  0  0  0
 14 13  1  0  0  0  0
 15 30  1  0  0  0  0
 16 31  1  0  0  0  0
 16 15  1  0  0  0  0
 17 16  2  0  0  0  0
 18 17  1  0  0  0  0
 19 18  2  0  0  0  0
 20 19  2  0  0  0  0
 20 21  1  0  0  0  0
 21 22  2  0  0  0  0
 22 23  1  0  0  0  0
 22 35  1  0  0  0  0
 23 18  1  1  0  0  0
 23 14  1  0  0  0  0
 28  7  1  0  0  0  0
 29 12  1  0  0  0  0
 32 17  1  0  0  0  0
 33 20  1  0  0  0  0
 34 21  1  0  0  0  0
M  RAD  1  23   2
M  END
