005-311-041.xyz
 OpenBabel07262113403D
CC(Cn1c(S)nc2c(c1=O)cccn2)C
 29 30  0  0  1  0  0  0  0  0999 V2000
   -4.5039    1.2976    0.8848 C   0  0  0  0  0  0  0  0  0  0  0  0
   -3.1897    1.3999    1.6634 C   0  0  0  0  0  0  0  0  0  0  0  0
   -2.2941    2.5120    1.1142 C   0  0  0  0  0  0  0  0  0  0  0  0
   -2.5069    0.0227    1.6641 C   0  0  0  0  0  0  0  0  0  0  0  0
   -1.2343   -0.0119    2.3997 N   0  0  0  0  0  0  0  0  0  0  0  0
    0.0000   -0.0000    1.7781 C   0  0  0  0  0  0  0  0  0  0  0  0
    0.0000    0.0000    0.0000 S   0  0  0  0  0  0  0  0  0  0  0  0
    1.1357    0.0000    2.4117 N   0  0  0  0  0  0  0  0  0  0  0  0
    1.1454   -0.0187    3.7821 C   0  0  0  0  0  0  0  0  0  0  0  0
    2.3484   -0.0075    4.3896 N   0  0  0  0  0  0  0  0  0  0  0  0
    2.3740   -0.0316    5.7137 C   0  0  0  0  0  0  0  0  0  0  0  0
    1.2280   -0.0692    6.5338 C   0  0  0  0  0  0  0  0  0  0  0  0
   -0.0143   -0.0799    5.9184 C   0  0  0  0  0  0  0  0  0  0  0  0
   -0.0642   -0.0534    4.5173 C   0  0  1  0  0  0  0  0  0  0  0  0
   -1.3452   -0.0577    3.8097 C   0  0  0  0  0  0  0  0  0  0  0  0
   -2.4399   -0.0939    4.3441 O   0  0  0  0  0  0  0  0  0  0  0  0
   -5.0532    2.2512    0.9159 H   0  0  0  0  0  0  0  0  0  0  0  0
   -5.1614    0.5173    1.3003 H   0  0  0  0  0  0  0  0  0  0  0  0
   -4.3178    1.0545   -0.1754 H   0  0  0  0  0  0  0  0  0  0  0  0
   -3.4301    1.6300    2.7142 H   0  0  0  0  0  0  0  0  0  0  0  0
   -2.0238    2.3285    0.0621 H   0  0  0  0  0  0  0  0  0  0  0  0
   -2.8119    3.4826    1.1688 H   0  0  0  0  0  0  0  0  0  0  0  0
   -1.3580    2.6047    1.6862 H   0  0  0  0  0  0  0  0  0  0  0  0
   -2.3143   -0.3183    0.6372 H   0  0  0  0  0  0  0  0  0  0  0  0
   -3.1706   -0.7063    2.1479 H   0  0  0  0  0  0  0  0  0  0  0  0
    2.3114   -0.0470   -0.2422 Au  0  0  0  0  0  0  0  0  0  0  0  0
    3.3679   -0.0212    6.1784 H   0  0  0  0  0  0  0  0  0  0  0  0
    1.3290   -0.0884    7.6203 H   0  0  0  0  0  0  0  0  0  0  0  0
   -0.9515   -0.1073    6.4780 H   0  0  0  0  0  0  0  0  0  0  0  0
  1 17  1  0  0  0  0
  1 18  1  0  0  0  0
  1  2  1  0  0  0  0
  2  4  1  0  0  0  0
  2 20  1  0  0  0  0
  3 22  1  0  0  0  0
  3  2  1  0  0  0  0
  3 23  1  0  0  0  0
  4 25  1  0  0  0  0
  4  5  1  0  0  0  0
  5 15  1  0  0  0  0
  6  5  1  0  0  0  0
  6  8  2  0  0  0  0
  7  6  1  0  0  0  0
  8  9  2  0  0  0  0
  9 10  2  0  0  0  0
 10 11  2  0  0  0  0
 11 27  1  0  0  0  0
 11 12  1  0  0  0  0
 12 28  1  0  0  0  0
 13 29  1  0  0  0  0
 13 12  2  0  0  0  0
 14  9  1  1  0  0  0
 14 13  1  0  0  0  0
 15 16  2  0  0  0  0
 15 14  1  0  0  0  0
 19  1  1  0  0  0  0
 21  3  1  0  0  0  0
 24  4  1  0  0  0  0
 26  7  1  0  0  0  0
M  RAD  1  14   2
M  END
