006-388-961.xyz
 OpenBabel07262113403D
SC1=NC(=O)/C(=C/c2ccc(s2)Cl)/S1
 18 19  0  0  0  0  0  0  0  0999 V2000
    0.0000    0.0000    0.0000 S   0  0  0  0  0  0  0  0  0  0  0  0
    0.0000    0.0000    1.7452 C   0  0  0  0  0  0  0  0  0  0  0  0
   -1.1017   -0.0001    2.3979 N   0  0  0  0  0  0  0  0  0  0  0  0
   -0.9087   -0.0001    3.7939 C   0  0  0  0  0  0  0  0  0  0  0  0
   -1.7941   -0.0002    4.6142 O   0  0  0  0  0  0  0  0  0  0  0  0
    0.5634    0.0002    4.1517 C   0  0  0  0  0  0  0  0  0  0  0  0
    1.5358    0.0000    2.6859 S   0  0  0  0  0  0  0  0  0  0  0  0
    0.9723    0.0005    5.4428 C   0  0  0  0  0  0  0  0  0  0  0  0
    2.2954    0.0009    5.9950 C   0  0  0  0  0  0  0  0  0  0  0  0
    2.6129    0.0014    7.3464 C   0  0  0  0  0  0  0  0  0  0  0  0
    4.0049    0.0015    7.6116 C   0  0  0  0  0  0  0  0  0  0  0  0
    4.7468    0.0011    6.4521 C   0  0  0  0  0  0  0  0  0  0  0  0
    6.4614    0.0010    6.3215 Cl  0  0  0  0  0  0  0  0  0  0  0  0
    3.7586    0.0005    5.0227 S   0  0  0  0  0  0  0  0  0  0  0  0
    2.2522    0.0020   -0.5077 Au  0  0  0  0  0  0  0  0  0  0  0  0
    0.1539    0.0006    6.1716 H   0  0  0  0  0  0  0  0  0  0  0  0
    1.8446    0.0017    8.1208 H   0  0  0  0  0  0  0  0  0  0  0  0
    4.4544    0.0020    8.6038 H   0  0  0  0  0  0  0  0  0  0  0  0
  1  2  1  0  0  0  0
  2  3  2  0  0  0  0
  2  7  1  0  0  0  0
  3  4  2  0  0  0  0
  4  6  1  0  0  0  0
  4  5  2  0  0  0  0
  6  8  2  0  0  0  0
  7  6  1  0  0  0  0
  8  9  1  0  0  0  0
  8 16  1  0  0  0  0
  9 10  2  0  0  0  0
 10 11  1  0  0  0  0
 10 17  1  0  0  0  0
 11 18  1  0  0  0  0
 12 11  2  0  0  0  0
 13 12  1  0  0  0  0
 14  9  1  0  0  0  0
 14 12  1  0  0  0  0
 15  1  1  0  0  0  0
M  END
