006-068-443.xyz
 OpenBabel07262113403D
SC1=N/C(=C/c2cccc(c2Cl)Cl)/C(=O)N1c1ccccc1
 32 34  0  0  0  0  0  0  0  0999 V2000
    0.0000    0.0000    0.0000 S   0  0  0  0  0  0  0  0  0  0  0  0
    0.0000    0.0000    1.7541 C   0  0  0  0  0  0  0  0  0  0  0  0
    1.1071   -0.0000    2.4280 N   0  0  0  0  0  0  0  0  0  0  0  0
    0.7716   -0.1224    3.7769 C   0  0  0  0  0  0  0  0  0  0  0  0
    1.6799   -0.1285    4.7796 C   0  0  0  0  0  0  0  0  0  0  0  0
    1.4184   -0.2537    6.2223 C   0  0  0  0  0  0  0  0  0  0  0  0
    1.9342    0.7394    7.0744 C   0  0  0  0  0  0  0  0  0  0  0  0
    1.7211    0.6982    8.4497 C   0  0  0  0  0  0  0  0  0  0  0  0
    1.0050   -0.3580    9.0109 C   0  0  0  0  0  0  0  0  0  0  0  0
    0.5179   -1.3783    8.1903 C   0  0  0  0  0  0  0  0  0  0  0  0
   -0.3373   -2.7026    8.9272 Cl  0  0  0  0  0  0  0  0  0  0  0  0
    0.7240   -1.3398    6.8007 C   0  0  0  0  0  0  0  0  0  0  0  0
    0.1867   -2.6725    5.8264 Cl  0  0  0  0  0  0  0  0  0  0  0  0
   -0.7260   -0.1430    3.9100 C   0  0  0  0  0  0  0  0  0  0  0  0
   -1.4510   -0.1731    4.8742 O   0  0  0  0  0  0  0  0  0  0  0  0
   -1.1525   -0.0806    2.5642 N   0  0  0  0  0  0  0  0  0  0  0  0
   -2.5120   -0.1559    2.1678 C   0  0  0  0  0  0  0  0  0  0  0  0
   -3.0542   -1.3758    1.7531 C   0  0  0  0  0  0  0  0  0  0  0  0
   -4.3806   -1.4349    1.3194 C   0  0  0  0  0  0  0  0  0  0  0  0
   -5.1686   -0.2804    1.3045 C   0  0  0  0  0  0  0  0  0  0  0  0
   -4.6334    0.9377    1.7384 C   0  0  0  0  0  0  0  0  0  0  0  0
   -3.3048    1.0030    2.1750 C   0  0  0  0  0  0  0  0  0  0  0  0
   -1.9674    1.1315   -0.4906 Au  0  0  0  0  0  0  0  0  0  0  0  0
    2.7201    0.0300    4.4755 H   0  0  0  0  0  0  0  0  0  0  0  0
    2.4927    1.5664    6.6307 H   0  0  0  0  0  0  0  0  0  0  0  0
    2.1137    1.4900    9.0908 H   0  0  0  0  0  0  0  0  0  0  0  0
    0.8250   -0.4145   10.0850 H   0  0  0  0  0  0  0  0  0  0  0  0
   -2.4221   -2.2649    1.7565 H   0  0  0  0  0  0  0  0  0  0  0  0
   -4.7998   -2.3877    0.9891 H   0  0  0  0  0  0  0  0  0  0  0  0
   -6.2049   -0.3301    0.9634 H   0  0  0  0  0  0  0  0  0  0  0  0
   -5.2517    1.8381    1.7481 H   0  0  0  0  0  0  0  0  0  0  0  0
   -2.8748    1.9386    2.5366 H   0  0  0  0  0  0  0  0  0  0  0  0
  1  2  1  0  0  0  0
  2  3  2  0  0  0  0
  2 16  1  0  0  0  0
  3  4  2  0  0  0  0
  4 14  1  0  0  0  0
  4  5  1  0  0  0  0
  5  6  1  0  0  0  0
  6 12  2  0  0  0  0
  6  7  1  0  0  0  0
  7  8  2  0  0  0  0
  8  9  1  0  0  0  0
  8 26  1  0  0  0  0
  9 27  1  0  0  0  0
 10 11  1  0  0  0  0
 10  9  2  0  0  0  0
 12 10  1  0  0  0  0
 13 12  1  0  0  0  0
 14 15  2  0  0  0  0
 16 14  1  0  0  0  0
 17 22  1  0  0  0  0
 17 16  1  0  0  0  0
 18 28  1  0  0  0  0
 18 17  2  0  0  0  0
 19 18  1  0  0  0  0
 20 19  2  0  0  0  0
 20 21  1  0  0  0  0
 21 31  1  0  0  0  0
 21 22  2  0  0  0  0
 22 32  1  0  0  0  0
 23  1  1  0  0  0  0
 24  5  1  0  0  0  0
 25  7  1  0  0  0  0
 29 19  1  0  0  0  0
 30 20  1  0  0  0  0
M  RAD  1   5   2
M  END
