006-810-816.xyz
 OpenBabel07262113403D
[O-][S+]1(=O)CC2C(C1)N=C(N2c1cccc(c1Cl)Cl)S
 29 31  0  0  1  0  0  0  0  0999 V2000
   -0.1206   -0.9100    7.1628 O   0  0  0  0  0  0  0  0  0  0  0  0
   -0.3182    0.2698    6.3153 S   0  0  0  0  0  0  0  0  0  0  0  0
   -0.6003    1.5920    6.8850 O   0  0  0  0  0  0  0  0  0  0  0  0
    1.1121    0.4191    5.1196 C   0  0  0  0  0  0  0  0  0  0  0  0
    0.5040   -0.1838    3.8707 C   0  0  2  0  0  0  0  0  0  0  0  0
    1.0416   -0.0000    2.5272 N   0  0  0  0  0  0  0  0  0  0  0  0
   -0.0000    0.0000    1.7623 C   0  0  0  0  0  0  0  0  0  0  0  0
    0.0000    0.0000    0.0000 S   0  0  0  0  0  0  0  0  0  0  0  0
   -1.2469   -0.0411    2.4216 N   0  0  0  0  0  0  0  0  0  0  0  0
   -0.9219    0.3665    3.7888 C   0  0  1  0  0  0  0  0  0  0  0  0
   -1.6309   -0.1118    5.0339 C   0  0  0  0  0  0  0  0  0  0  0  0
   -2.4715    0.3453    1.8197 C   0  0  0  0  0  0  0  0  0  0  0  0
   -2.6036    1.5785    1.1688 C   0  0  0  0  0  0  0  0  0  0  0  0
   -3.8185    1.9467    0.5918 C   0  0  0  0  0  0  0  0  0  0  0  0
   -4.9190    1.0951    0.6738 C   0  0  0  0  0  0  0  0  0  0  0  0
   -4.8061   -0.1338    1.3312 C   0  0  0  0  0  0  0  0  0  0  0  0
   -6.1920   -1.1772    1.4173 Cl  0  0  0  0  0  0  0  0  0  0  0  0
   -3.5826   -0.5176    1.9055 C   0  0  0  0  0  0  0  0  0  0  0  0
   -3.4234   -2.0493    2.7033 Cl  0  0  0  0  0  0  0  0  0  0  0  0
    1.3441    1.4881    5.0280 H   0  0  0  0  0  0  0  0  0  0  0  0
    1.9469   -0.1397    5.5585 H   0  0  0  0  0  0  0  0  0  0  0  0
    0.4214   -1.2773    4.0454 H   0  0  0  0  0  0  0  0  0  0  0  0
    2.2857   -0.2377   -0.2765 Au  0  0  0  0  0  0  0  0  0  0  0  0
   -0.8855    1.4767    3.8253 H   0  0  0  0  0  0  0  0  0  0  0  0
   -2.5227    0.4535    5.3299 H   0  0  0  0  0  0  0  0  0  0  0  0
   -1.8119   -1.1925    5.0531 H   0  0  0  0  0  0  0  0  0  0  0  0
   -1.7383    2.2405    1.1146 H   0  0  0  0  0  0  0  0  0  0  0  0
   -3.9124    2.9061    0.0795 H   0  0  0  0  0  0  0  0  0  0  0  0
   -5.8782    1.3684    0.2327 H   0  0  0  0  0  0  0  0  0  0  0  0
  2  3  2  0  0  0  0
  2  1  2  0  0  0  0
  4 21  1  0  0  0  0
  4  2  1  0  0  0  0
  5 10  1  6  0  0  0
  5 22  1  0  0  0  0
  5  4  1  0  0  0  0
  6  5  1  0  0  0  0
  7  9  1  0  0  0  0
  7  6  2  0  0  0  0
  8  7  1  0  0  0  0
  9 10  1  0  0  0  0
 10 24  1  1  0  0  0
 10 11  1  0  0  0  0
 11 26  1  0  0  0  0
 11 25  1  0  0  0  0
 11  2  1  0  0  0  0
 12 18  1  0  0  0  0
 12  9  1  0  0  0  0
 13 12  2  0  0  0  0
 14 15  2  0  0  0  0
 14 13  1  0  0  0  0
 15 16  1  0  0  0  0
 16 17  1  0  0  0  0
 16 18  2  0  0  0  0
 18 19  1  0  0  0  0
 20  4  1  0  0  0  0
 23  8  1  0  0  0  0
 27 13  1  0  0  0  0
 28 14  1  0  0  0  0
 29 15  1  0  0  0  0
M  END
