008-297-911.xyz
 OpenBabel07262113403D
SC1=NC(=O)/C(=C/c2ccc[nH]2)/S1
 19 20  0  0  0  0  0  0  0  0999 V2000
    0.0000    0.0000    0.0000 S   0  0  0  0  0  0  0  0  0  0  0  0
   -0.0000    0.0000    1.7400 C   0  0  0  0  0  0  0  0  0  0  0  0
   -1.0222   -0.0001    2.5180 N   0  0  0  0  0  0  0  0  0  0  0  0
   -0.6815   -0.0001    3.8886 C   0  0  0  0  0  0  0  0  0  0  0  0
   -1.4877   -0.0003    4.7908 O   0  0  0  0  0  0  0  0  0  0  0  0
    0.8084    0.0004    4.0853 C   0  0  0  0  0  0  0  0  0  0  0  0
    1.6202   -0.0000    2.5175 S   0  0  0  0  0  0  0  0  0  0  0  0
    1.3679    0.0013    5.3219 C   0  0  0  0  0  0  0  0  0  0  0  0
    2.7378    0.0030    5.7262 C   0  0  0  0  0  0  0  0  0  0  0  0
    3.2496    0.0020    7.0314 C   0  0  0  0  0  0  0  0  0  0  0  0
    4.6595    0.0044    6.9483 C   0  0  0  0  0  0  0  0  0  0  0  0
    4.9878    0.0069    5.5974 C   0  0  0  0  0  0  0  0  0  0  0  0
    3.8311    0.0059    4.8755 N   0  0  0  0  0  0  0  0  0  0  0  0
   -2.2994    0.0013   -0.3020 Au  0  0  0  0  0  0  0  0  0  0  0  0
    0.6351    0.0008    6.1355 H   0  0  0  0  0  0  0  0  0  0  0  0
    2.6411   -0.0003    7.9335 H   0  0  0  0  0  0  0  0  0  0  0  0
    5.3667    0.0043    7.7745 H   0  0  0  0  0  0  0  0  0  0  0  0
    5.9584    0.0094    5.1063 H   0  0  0  0  0  0  0  0  0  0  0  0
    3.7821    0.0083    3.8644 H   0  0  0  0  0  0  0  0  0  0  0  0
  1  2  1  0  0  0  0
  2  7  1  0  0  0  0
  2  3  2  0  0  0  0
  3  4  2  0  0  0  0
  4  6  1  0  0  0  0
  4  5  2  0  0  0  0
  6  8  2  0  0  0  0
  7  6  1  0  0  0  0
  8  9  1  0  0  0  0
  8 15  1  0  0  0  0
  9 10  2  0  0  0  0
 10 16  1  0  0  0  0
 11 10  1  0  0  0  0
 11 17  1  0  0  0  0
 12 11  2  0  0  0  0
 13 12  1  0  0  0  0
 13  9  1  0  0  0  0
 14  1  1  0  0  0  0
 18 12  1  0  0  0  0
 19 13  1  0  0  0  0
M  END
