008-157-747.xyz
 OpenBabel07262113403D
CCn1c(S)nnc1C1COc2c(O1)cccc2
 31 33  0  0  1  0  0  0  0  0999 V2000
   -2.9469    1.4709    1.6206 C   0  0  0  0  0  0  0  0  0  0  0  0
   -2.5245    0.0547    1.9952 C   0  0  0  0  0  0  0  0  0  0  0  0
   -1.1545   -0.0054    2.4985 N   0  0  0  0  0  0  0  0  0  0  0  0
    0.0000    0.0000    1.7560 C   0  0  0  0  0  0  0  0  0  0  0  0
    0.0000    0.0000    0.0000 S   0  0  0  0  0  0  0  0  0  0  0  0
    1.0525    0.0000    2.5566 N   0  0  0  0  0  0  0  0  0  0  0  0
    0.5935    0.0093    3.8425 N   0  0  0  0  0  0  0  0  0  0  0  0
   -0.7157    0.0112    3.8059 C   0  0  0  0  0  0  0  0  0  0  0  0
   -1.6063   -0.0006    5.0002 C   0  0  1  0  0  0  0  0  0  0  0  0
   -0.8195    0.1422    6.2987 C   0  0  0  0  0  0  0  0  0  0  0  0
   -1.7072    0.0886    7.4029 O   0  0  0  0  0  0  0  0  0  0  0  0
   -2.8413    0.8349    7.2717 C   0  0  0  0  0  0  0  0  0  0  0  0
   -3.6127    1.0980    8.4078 C   0  0  0  0  0  0  0  0  0  0  0  0
   -4.7763    1.8611    8.3076 C   0  0  0  0  0  0  0  0  0  0  0  0
   -5.1762    2.3715    7.0674 C   0  0  0  0  0  0  0  0  0  0  0  0
   -4.4186    2.1022    5.9268 C   0  0  0  0  0  0  0  0  0  0  0  0
   -3.2572    1.3323    6.0218 C   0  0  0  0  0  0  0  0  0  0  0  0
   -2.5391    1.0772    4.8818 O   0  0  0  0  0  0  0  0  0  0  0  0
   -2.2941    1.8774    0.8335 H   0  0  0  0  0  0  0  0  0  0  0  0
   -2.8949    2.1238    2.5030 H   0  0  0  0  0  0  0  0  0  0  0  0
   -3.9811    1.4675    1.2430 H   0  0  0  0  0  0  0  0  0  0  0  0
   -2.5831   -0.6202    1.1271 H   0  0  0  0  0  0  0  0  0  0  0  0
   -3.1808   -0.3508    2.7768 H   0  0  0  0  0  0  0  0  0  0  0  0
    2.3099   -0.1109   -0.2091 Au  0  0  0  0  0  0  0  0  0  0  0  0
   -2.1800   -0.9485    5.0438 H   0  0  0  0  0  0  0  0  0  0  0  0
   -0.0975   -0.6747    6.4113 H   0  0  0  0  0  0  0  0  0  0  0  0
   -0.2681    1.0973    6.2836 H   0  0  0  0  0  0  0  0  0  0  0  0
   -3.2696    0.6958    9.3630 H   0  0  0  0  0  0  0  0  0  0  0  0
   -5.3686    2.0628    9.2026 H   0  0  0  0  0  0  0  0  0  0  0  0
   -6.0824    2.9751    6.9853 H   0  0  0  0  0  0  0  0  0  0  0  0
   -4.7120    2.4763    4.9439 H   0  0  0  0  0  0  0  0  0  0  0  0
  1  2  1  0  0  0  0
  1 20  1  0  0  0  0
  2  3  1  0  0  0  0
  2 23  1  0  0  0  0
  3  8  1  0  0  0  0
  4  3  1  0  0  0  0
  4  6  2  0  0  0  0
  5  4  1  0  0  0  0
  6  7  1  0  0  0  0
  8  7  2  0  0  0  0
  8  9  1  0  0  0  0
  9 25  1  1  0  0  0
  9 10  1  0  0  0  0
 10 26  1  0  0  0  0
 10 11  1  0  0  0  0
 12 11  1  0  0  0  0
 12 13  2  0  0  0  0
 13 28  1  0  0  0  0
 14 13  1  0  0  0  0
 14 29  1  0  0  0  0
 15 14  2  0  0  0  0
 16 17  2  0  0  0  0
 16 15  1  0  0  0  0
 17 12  1  0  0  0  0
 18  9  1  0  0  0  0
 18 17  1  0  0  0  0
 19  1  1  0  0  0  0
 21  1  1  0  0  0  0
 22  2  1  0  0  0  0
 24  5  1  0  0  0  0
 27 10  1  0  0  0  0
 30 15  1  0  0  0  0
 31 16  1  0  0  0  0
M  END
