008-299-763.xyz
 OpenBabel07262113403D
SC1=NC(=O)/C(=C/c2cnc3c(n2)cccc3)/S1
 25 27  0  0  0  0  0  0  0  0999 V2000
    0.0000    0.0000    0.0000 S   0  0  0  0  0  0  0  0  0  0  0  0
   -0.0000   -0.0000    1.7346 C   0  0  0  0  0  0  0  0  0  0  0  0
   -1.0260    0.0000    2.5107 N   0  0  0  0  0  0  0  0  0  0  0  0
   -0.6829    0.0001    3.8737 C   0  0  0  0  0  0  0  0  0  0  0  0
   -1.4777    0.0000    4.7812 O   0  0  0  0  0  0  0  0  0  0  0  0
    0.8262    0.0001    4.0748 C   0  0  0  0  0  0  0  0  0  0  0  0
    1.6268    0.0000    2.5072 S   0  0  0  0  0  0  0  0  0  0  0  0
    1.3467    0.0005    5.3214 C   0  0  0  0  0  0  0  0  0  0  0  0
    2.7262    0.0007    5.7922 C   0  0  0  0  0  0  0  0  0  0  0  0
    3.8731   -0.0004    4.9264 C   0  0  0  0  0  0  0  0  0  0  0  0
    5.1021   -0.0003    5.3758 N   0  0  0  0  0  0  0  0  0  0  0  0
    5.2774    0.0010    6.7255 C   0  0  0  0  0  0  0  0  0  0  0  0
    6.5851    0.0012    7.2735 C   0  0  0  0  0  0  0  0  0  0  0  0
    6.7574    0.0024    8.6422 C   0  0  0  0  0  0  0  0  0  0  0  0
    5.6358    0.0036    9.5142 C   0  0  0  0  0  0  0  0  0  0  0  0
    4.3533    0.0035    9.0105 C   0  0  0  0  0  0  0  0  0  0  0  0
    4.1430    0.0021    7.6036 C   0  0  0  0  0  0  0  0  0  0  0  0
    2.8839    0.0019    7.1105 N   0  0  0  0  0  0  0  0  0  0  0  0
   -2.2994    0.0009   -0.3115 Au  0  0  0  0  0  0  0  0  0  0  0  0
    0.6015    0.0007    6.1231 H   0  0  0  0  0  0  0  0  0  0  0  0
    3.7479   -0.0015    3.8393 H   0  0  0  0  0  0  0  0  0  0  0  0
    7.4284    0.0003    6.5807 H   0  0  0  0  0  0  0  0  0  0  0  0
    7.7646    0.0026    9.0653 H   0  0  0  0  0  0  0  0  0  0  0  0
    5.7978    0.0046   10.5946 H   0  0  0  0  0  0  0  0  0  0  0  0
    3.4733    0.0043    9.6560 H   0  0  0  0  0  0  0  0  0  0  0  0
  1  2  1  0  0  0  0
  2  7  1  0  0  0  0
  2  3  2  0  0  0  0
  3  4  2  0  0  0  0
  4  6  1  0  0  0  0
  4  5  2  0  0  0  0
  6  8  2  0  0  0  0
  7  6  1  0  0  0  0
  8  9  1  0  0  0  0
  8 20  1  0  0  0  0
  9 18  2  0  0  0  0
 10 11  2  0  0  0  0
 10  9  1  0  0  0  0
 11 12  2  0  0  0  0
 12 13  1  0  0  0  0
 12 17  1  0  0  0  0
 13 14  2  0  0  0  0
 14 23  1  0  0  0  0
 14 15  1  0  0  0  0
 15 24  1  0  0  0  0
 16 15  2  0  0  0  0
 16 25  1  0  0  0  0
 17 16  1  0  0  0  0
 18 17  2  0  0  0  0
 19  1  1  0  0  0  0
 21 10  1  0  0  0  0
 22 13  1  0  0  0  0
M  END
