009-340-569.xyz
 OpenBabel07262113403D
CCc1nc(sc1C)NC(=O)c1ccc2c(c1)nc([nH]c2=O)S
 37 39  0  0  1  0  0  0  0  0999 V2000
   -7.3679    5.8910    4.9814 C   0  0  0  0  0  0  0  0  0  0  0  0
   -6.5664    5.3478    3.7925 C   0  0  0  0  0  0  0  0  0  0  0  0
   -5.4257    4.4689    4.2228 C   0  0  0  0  0  0  0  0  0  0  0  0
   -5.7332    3.2911    4.8775 N   0  0  0  0  0  0  0  0  0  0  0  0
   -4.6709    2.6214    5.2040 C   0  0  0  0  0  0  0  0  0  0  0  0
   -4.7809    1.4443    5.9364 N   0  0  0  0  0  0  0  0  0  0  0  0
   -3.8311    0.5716    6.4433 C   0  0  0  0  0  0  0  0  0  0  0  0
   -4.0903   -0.1320    7.3997 O   0  0  0  0  0  0  0  0  0  0  0  0
   -2.5075    0.4919    5.7440 C   0  0  0  0  0  0  0  0  0  0  0  0
   -1.3363    0.4394    6.5287 C   0  0  0  0  0  0  0  0  0  0  0  0
   -0.0994    0.3161    5.9150 C   0  0  0  0  0  0  0  0  0  0  0  0
   -0.0163    0.2120    4.5173 C   0  0  2  0  0  0  0  0  0  0  0  0
   -1.1894    0.2231    3.7221 C   0  0  0  0  0  0  0  0  0  0  0  0
   -2.4368    0.3717    4.3592 C   0  0  0  0  0  0  0  0  0  0  0  0
   -1.1525    0.0860    2.3470 N   0  0  0  0  0  0  0  0  0  0  0  0
   -0.0000    0.0000    1.7770 C   0  0  0  0  0  0  0  0  0  0  0  0
    0.0000    0.0000    0.0000 S   0  0  0  0  0  0  0  0  0  0  0  0
    1.1913    0.0000    2.4636 N   0  0  0  0  0  0  0  0  0  0  0  0
    1.2950    0.0889    3.8600 C   0  0  0  0  0  0  0  0  0  0  0  0
    2.3796    0.0735    4.4071 O   0  0  0  0  0  0  0  0  0  0  0  0
   -3.1575    3.3901    4.7489 S   0  0  0  0  0  0  0  0  0  0  0  0
   -4.0852    4.7155    4.0588 C   0  0  1  0  0  0  0  0  0  0  0  0
   -3.3784    5.8544    3.3951 C   0  0  0  0  0  0  0  0  0  0  0  0
   -7.7343    5.0604    5.6032 H   0  0  0  0  0  0  0  0  0  0  0  0
   -8.2347    6.4790    4.6411 H   0  0  0  0  0  0  0  0  0  0  0  0
   -6.7421    6.5371    5.6175 H   0  0  0  0  0  0  0  0  0  0  0  0
   -6.1900    6.1772    3.1753 H   0  0  0  0  0  0  0  0  0  0  0  0
   -7.2333    4.7515    3.1464 H   0  0  0  0  0  0  0  0  0  0  0  0
   -5.7004    1.3346    6.3605 H   0  0  0  0  0  0  0  0  0  0  0  0
   -1.4241    0.4995    7.6144 H   0  0  0  0  0  0  0  0  0  0  0  0
    0.8272    0.2916    6.4911 H   0  0  0  0  0  0  0  0  0  0  0  0
   -3.3308    0.3865    3.7354 H   0  0  0  0  0  0  0  0  0  0  0  0
    1.8223   -1.2810   -0.5849 Au  0  0  0  0  0  0  0  0  0  0  0  0
    2.0706   -0.0355    1.9560 H   0  0  0  0  0  0  0  0  0  0  0  0
   -2.7643    5.5155    2.5440 H   0  0  0  0  0  0  0  0  0  0  0  0
   -2.7094    6.3858    4.0924 H   0  0  0  0  0  0  0  0  0  0  0  0
   -4.1065    6.5826    3.0122 H   0  0  0  0  0  0  0  0  0  0  0  0
  1 24  1  0  0  0  0
  1 26  1  0  0  0  0
  2  3  1  0  0  0  0
  2  1  1  0  0  0  0
  3  4  2  0  0  0  0
  4  5  2  0  0  0  0
  5  6  1  0  0  0  0
  6 29  1  0  0  0  0
  6  7  1  0  0  0  0
  7  8  2  0  0  0  0
  9  7  1  0  0  0  0
  9 10  1  0  0  0  0
 10 30  1  0  0  0  0
 11 31  1  0  0  0  0
 11 10  2  0  0  0  0
 12 13  1  1  0  0  0
 12 11  1  0  0  0  0
 13 14  1  0  0  0  0
 14  9  2  0  0  0  0
 15 13  2  0  0  0  0
 16 15  2  0  0  0  0
 16 18  1  0  0  0  0
 17 16  1  0  0  0  0
 18 19  1  0  0  0  0
 19 20  2  0  0  0  0
 19 12  1  0  0  0  0
 21  5  1  0  0  0  0
 22 23  1  6  0  0  0
 22  3  1  0  0  0  0
 22 21  1  0  0  0  0
 23 36  1  0  0  0  0
 25  1  1  0  0  0  0
 27  2  1  0  0  0  0
 28  2  1  0  0  0  0
 32 14  1  0  0  0  0
 33 17  1  0  0  0  0
 34 18  1  0  0  0  0
 35 23  1  0  0  0  0
 37 23  1  0  0  0  0
M  RAD  2  12   2  22   2
M  END
