009-444-303.xyz
 OpenBabel07262113413D
O=C(c1ccc2c(c1)nc(n(c2=O)C)S)Nc1cccc2c1nccc2
 40 43  0  0  1  0  0  0  0  0999 V2000
   -2.4699   -0.0006    1.5477 C   0  0  0  0  0  0  0  0  0  0  0  0
   -1.2544    0.0001    2.3603 N   0  0  0  0  0  0  0  0  0  0  0  0
   -0.0000   -0.0000    1.7765 C   0  0  0  0  0  0  0  0  0  0  0  0
    0.0000    0.0000    0.0000 S   0  0  0  0  0  0  0  0  0  0  0  0
    1.1160   -0.0000    2.4386 N   0  0  0  0  0  0  0  0  0  0  0  0
    1.0714    0.0010    3.8139 C   0  0  0  0  0  0  0  0  0  0  0  0
    2.2742    0.0024    4.5479 C   0  0  0  0  0  0  0  0  0  0  0  0
    2.2572   -0.0071    5.9387 C   0  0  0  0  0  0  0  0  0  0  0  0
    1.0221    0.0059    6.6298 C   0  0  0  0  0  0  0  0  0  0  0  0
   -0.1691    0.0104    5.9217 C   0  0  0  0  0  0  0  0  0  0  0  0
   -0.1552    0.0025    4.5169 C   0  0  1  0  0  0  0  0  0  0  0  0
   -1.4160    0.0025    3.7696 C   0  0  0  0  0  0  0  0  0  0  0  0
   -2.5249    0.0040    4.2731 O   0  0  0  0  0  0  0  0  0  0  0  0
    3.5953   -0.0056    6.6329 C   0  0  0  0  0  0  0  0  0  0  0  0
    4.6238    0.2806    6.0394 O   0  0  0  0  0  0  0  0  0  0  0  0
    3.5552   -0.3594    7.9564 N   0  0  0  0  0  0  0  0  0  0  0  0
    4.5992   -0.4160    8.8721 C   0  0  0  0  0  0  0  0  0  0  0  0
    5.9274   -0.1119    8.6104 C   0  0  0  0  0  0  0  0  0  0  0  0
    6.8896   -0.2070    9.6445 C   0  0  0  0  0  0  0  0  0  0  0  0
    6.5508   -0.5988   10.9226 C   0  0  0  0  0  0  0  0  0  0  0  0
    5.1998   -0.9180   11.2236 C   0  0  1  0  0  0  0  0  0  0  0  0
    4.7500   -1.3301   12.5053 C   0  0  0  0  0  0  0  0  0  0  0  0
    3.4165   -1.6182   12.7028 C   0  0  0  0  0  0  0  0  0  0  0  0
    2.5222   -1.4937   11.6105 C   0  0  0  0  0  0  0  0  0  0  0  0
    2.9023   -1.1144   10.4085 N   0  0  0  0  0  0  0  0  0  0  0  0
    4.2119   -0.8274   10.1954 C   0  0  0  0  0  0  0  0  0  0  0  0
   -3.3198   -0.0001    2.2387 H   0  0  0  0  0  0  0  0  0  0  0  0
   -2.5050   -0.8967    0.9109 H   0  0  0  0  0  0  0  0  0  0  0  0
   -2.5051    0.8948    0.9097 H   0  0  0  0  0  0  0  0  0  0  0  0
    2.2974    0.0122   -0.2971 Au  0  0  0  0  0  0  0  0  0  0  0  0
    3.2284    0.0113    4.0216 H   0  0  0  0  0  0  0  0  0  0  0  0
    0.9893    0.0411    7.7204 H   0  0  0  0  0  0  0  0  0  0  0  0
   -1.1354    0.0266    6.4285 H   0  0  0  0  0  0  0  0  0  0  0  0
    2.6761   -0.6594    8.3751 H   0  0  0  0  0  0  0  0  0  0  0  0
    6.2099    0.1949    7.6066 H   0  0  0  0  0  0  0  0  0  0  0  0
    7.9283    0.0387    9.4106 H   0  0  0  0  0  0  0  0  0  0  0  0
    7.3046   -0.6686   11.7100 H   0  0  0  0  0  0  0  0  0  0  0  0
    5.4713   -1.4138   13.3226 H   0  0  0  0  0  0  0  0  0  0  0  0
    3.0424   -1.9373   13.6775 H   0  0  0  0  0  0  0  0  0  0  0  0
    1.4580   -1.7181   11.7471 H   0  0  0  0  0  0  0  0  0  0  0  0
  1 27  1  0  0  0  0
  1  2  1  0  0  0  0
  2 12  1  0  0  0  0
  3  2  1  0  0  0  0
  3  5  2  0  0  0  0
  4  3  1  0  0  0  0
  5  6  2  0  0  0  0
  6 11  1  0  0  0  0
  6  7  1  0  0  0  0
  7  8  2  0  0  0  0
  8  9  1  0  0  0  0
  8 14  1  0  0  0  0
  9 32  1  0  0  0  0
 10 33  1  0  0  0  0
 10  9  2  0  0  0  0
 11 12  1  6  0  0  0
 11 10  1  0  0  0  0
 12 13  2  0  0  0  0
 14 16  1  0  0  0  0
 15 14  2  0  0  0  0
 16 34  1  0  0  0  0
 16 17  1  0  0  0  0
 17 26  1  0  0  0  0
 18 17  2  0  0  0  0
 18 19  1  0  0  0  0
 19 20  2  0  0  0  0
 20 21  1  0  0  0  0
 20 37  1  0  0  0  0
 21 26  1  1  0  0  0
 21 22  1  0  0  0  0
 22 23  2  0  0  0  0
 22 38  1  0  0  0  0
 23 39  1  0  0  0  0
 24 40  1  0  0  0  0
 24 23  1  0  0  0  0
 25 24  2  0  0  0  0
 26 25  2  0  0  0  0
 28  1  1  0  0  0  0
 29  1  1  0  0  0  0
 30  4  1  0  0  0  0
 31  7  1  0  0  0  0
 35 18  1  0  0  0  0
 36 19  1  0  0  0  0
M  RAD  2  11   2  21   2
M  END
