009-318-586.xyz
 OpenBabel07262113403D
Cc1ncc(o1)c1ccc(cc1)NC(=O)c1ccc2c(c1)nc([nH]c2=O)S
 41 44  0  0  1  0  0  0  0  0999 V2000
   11.9241   -0.3748   11.0891 C   0  0  0  0  0  0  0  0  0  0  0  0
   11.3105   -0.8078    9.8084 C   0  0  0  0  0  0  0  0  0  0  0  0
   11.8579   -1.4293    8.8081 N   0  0  0  0  0  0  0  0  0  0  0  0
   10.8449   -1.5864    7.8807 C   0  0  0  0  0  0  0  0  0  0  0  0
    9.6867   -1.0373    8.3691 C   0  0  2  0  0  0  0  0  0  0  0  0
    9.9916   -0.5371    9.6107 O   0  0  0  0  0  0  0  0  0  0  0  0
    8.3265   -0.8939    7.8770 C   0  0  0  0  0  0  0  0  0  0  0  0
    7.3343   -0.2603    8.6458 C   0  0  0  0  0  0  0  0  0  0  0  0
    6.0282   -0.1192    8.1836 C   0  0  0  0  0  0  0  0  0  0  0  0
    5.6793   -0.6174    6.9164 C   0  0  0  0  0  0  0  0  0  0  0  0
    4.3915   -0.5120    6.3691 N   0  0  0  0  0  0  0  0  0  0  0  0
    3.2552    0.0199    6.9334 C   0  0  0  0  0  0  0  0  0  0  0  0
    3.1981    0.4622    8.0681 O   0  0  0  0  0  0  0  0  0  0  0  0
    2.0421    0.0029    6.0391 C   0  0  0  0  0  0  0  0  0  0  0  0
    0.7807    0.0378    6.6717 C   0  0  0  0  0  0  0  0  0  0  0  0
   -0.3769    0.0303    5.9106 C   0  0  0  0  0  0  0  0  0  0  0  0
   -0.3005    0.0087    4.5084 C   0  0  2  0  0  0  0  0  0  0  0  0
    0.9572   -0.0001    3.8566 C   0  0  0  0  0  0  0  0  0  0  0  0
    2.1239   -0.0026    4.6481 C   0  0  0  0  0  0  0  0  0  0  0  0
    1.0833   -0.0000    2.4796 N   0  0  0  0  0  0  0  0  0  0  0  0
   -0.0000   -0.0000    1.7696 C   0  0  0  0  0  0  0  0  0  0  0  0
    0.0000    0.0000    0.0000 S   0  0  0  0  0  0  0  0  0  0  0  0
   -1.2612   -0.0011    2.3193 N   0  0  0  0  0  0  0  0  0  0  0  0
   -1.5274    0.0047    3.6987 C   0  0  0  0  0  0  0  0  0  0  0  0
   -2.6693    0.0068    4.1113 O   0  0  0  0  0  0  0  0  0  0  0  0
    6.6663   -1.2534    6.1394 C   0  0  0  0  0  0  0  0  0  0  0  0
    7.9647   -1.3900    6.6099 C   0  0  0  0  0  0  0  0  0  0  0  0
   12.9818   -0.6649   11.0915 H   0  0  0  0  0  0  0  0  0  0  0  0
   11.8480    0.7174   11.2150 H   0  0  0  0  0  0  0  0  0  0  0  0
   11.4182   -0.8435   11.9486 H   0  0  0  0  0  0  0  0  0  0  0  0
   11.0105   -2.0815    6.9264 H   0  0  0  0  0  0  0  0  0  0  0  0
    7.5954    0.1293    9.6307 H   0  0  0  0  0  0  0  0  0  0  0  0
    5.2695    0.3669    8.7908 H   0  0  0  0  0  0  0  0  0  0  0  0
    4.2756   -0.9422    5.4602 H   0  0  0  0  0  0  0  0  0  0  0  0
    0.7493    0.0709    7.7611 H   0  0  0  0  0  0  0  0  0  0  0  0
   -1.3660    0.0442    6.3720 H   0  0  0  0  0  0  0  0  0  0  0  0
    3.0786    0.0243    4.1197 H   0  0  0  0  0  0  0  0  0  0  0  0
    2.2854    0.0548   -0.3437 Au  0  0  0  0  0  0  0  0  0  0  0  0
   -2.0816    0.0009    1.7186 H   0  0  0  0  0  0  0  0  0  0  0  0
    6.4066   -1.6451    5.1517 H   0  0  0  0  0  0  0  0  0  0  0  0
    8.7083   -1.8885    5.9852 H   0  0  0  0  0  0  0  0  0  0  0  0
  1 28  1  0  0  0  0
  1 29  1  0  0  0  0
  1 30  1  0  0  0  0
  2  1  1  0  0  0  0
  3  2  2  0  0  0  0
  4  5  1  0  0  0  0
  4  3  2  0  0  0  0
  5  7  1  1  0  0  0
  5  6  1  0  0  0  0
  6  2  1  0  0  0  0
  7  8  2  0  0  0  0
  8 32  1  0  0  0  0
  9  8  1  0  0  0  0
  9 33  1  0  0  0  0
 10  9  2  0  0  0  0
 11 10  1  0  0  0  0
 11 12  1  0  0  0  0
 12 13  2  0  0  0  0
 14 15  1  0  0  0  0
 14 12  1  0  0  0  0
 15 35  1  0  0  0  0
 16 36  1  0  0  0  0
 16 15  2  0  0  0  0
 17 24  1  6  0  0  0
 17 16  1  0  0  0  0
 18 17  1  0  0  0  0
 18 19  1  0  0  0  0
 19 14  2  0  0  0  0
 20 18  2  0  0  0  0
 21 23  1  0  0  0  0
 21 20  2  0  0  0  0
 22 21  1  0  0  0  0
 23 24  1  0  0  0  0
 24 25  2  0  0  0  0
 26 27  2  0  0  0  0
 26 10  1  0  0  0  0
 27  7  1  0  0  0  0
 31  4  1  0  0  0  0
 34 11  1  0  0  0  0
 37 19  1  0  0  0  0
 38 22  1  0  0  0  0
 39 23  1  0  0  0  0
 40 26  1  0  0  0  0
 41 27  1  0  0  0  0
M  RAD  2   5   2  17   2
M  END
