009-042-251.xyz
 OpenBabel07262113403D
CC1CC(C)CN(C1)C(=O)c1ccc2c(c1)nc([nH]c2=O)S
 41 43  0  0  1  0  0  0  0  0999 V2000
    2.7993   -4.3710    8.7571 C   0  0  0  0  0  0  0  0  0  0  0  0
    3.5961   -3.0763    8.6102 C   0  0  2  0  0  0  0  0  0  0  0  0
    4.3798   -2.7233    9.8930 C   0  0  0  0  0  0  0  0  0  0  0  0
    4.5960   -1.2053   10.0614 C   0  0  1  0  0  0  0  0  0  0  0  0
    5.8028   -0.8924   10.9439 C   0  0  0  0  0  0  0  0  0  0  0  0
    4.7142   -0.5242    8.6993 C   0  0  0  0  0  0  0  0  0  0  0  0
    3.4907   -0.7155    7.9152 N   0  0  0  0  0  0  0  0  0  0  0  0
    2.6923   -1.9091    8.1985 C   0  0  0  0  0  0  0  0  0  0  0  0
    3.3529    0.0722    6.8027 C   0  0  0  0  0  0  0  0  0  0  0  0
    4.2332    0.8449    6.4477 O   0  0  0  0  0  0  0  0  0  0  0  0
    2.0606   -0.0081    6.0291 C   0  0  0  0  0  0  0  0  0  0  0  0
    0.8006    0.0068    6.6672 C   0  0  0  0  0  0  0  0  0  0  0  0
   -0.3613    0.0181    5.9102 C   0  0  0  0  0  0  0  0  0  0  0  0
   -0.2889    0.0045    4.5087 C   0  0  2  0  0  0  0  0  0  0  0  0
    0.9691    0.0025    3.8540 C   0  0  0  0  0  0  0  0  0  0  0  0
    2.1377    0.0104    4.6399 C   0  0  0  0  0  0  0  0  0  0  0  0
    1.0854   -0.0000    2.4755 N   0  0  0  0  0  0  0  0  0  0  0  0
   -0.0000   -0.0000    1.7705 C   0  0  0  0  0  0  0  0  0  0  0  0
   -1.2599   -0.0010    2.3251 N   0  0  0  0  0  0  0  0  0  0  0  0
   -1.5188    0.0016    3.7049 C   0  0  0  0  0  0  0  0  0  0  0  0
   -2.6601    0.0012    4.1228 O   0  0  0  0  0  0  0  0  0  0  0  0
    0.0000    0.0000    0.0000 S   0  0  0  0  0  0  0  0  0  0  0  0
    2.0109   -4.2620    9.5210 H   0  0  0  0  0  0  0  0  0  0  0  0
    2.3149   -4.6603    7.8108 H   0  0  0  0  0  0  0  0  0  0  0  0
    3.4515   -5.2014    9.0703 H   0  0  0  0  0  0  0  0  0  0  0  0
    4.3209   -3.2083    7.7879 H   0  0  0  0  0  0  0  0  0  0  0  0
    5.3553   -3.2385    9.8729 H   0  0  0  0  0  0  0  0  0  0  0  0
    3.8460   -3.1111   10.7775 H   0  0  0  0  0  0  0  0  0  0  0  0
    3.6996   -0.7832   10.5497 H   0  0  0  0  0  0  0  0  0  0  0  0
    5.8990    0.1890   11.1289 H   0  0  0  0  0  0  0  0  0  0  0  0
    6.7359   -1.2376   10.4676 H   0  0  0  0  0  0  0  0  0  0  0  0
    5.7202   -1.3974   11.9194 H   0  0  0  0  0  0  0  0  0  0  0  0
    4.8856    0.5563    8.8055 H   0  0  0  0  0  0  0  0  0  0  0  0
    5.5905   -0.9169    8.1481 H   0  0  0  0  0  0  0  0  0  0  0  0
    2.1221   -2.1794    7.3013 H   0  0  0  0  0  0  0  0  0  0  0  0
    1.9552   -1.7172    9.0014 H   0  0  0  0  0  0  0  0  0  0  0  0
    0.7441    0.0300    7.7564 H   0  0  0  0  0  0  0  0  0  0  0  0
   -1.3487    0.0398    6.3751 H   0  0  0  0  0  0  0  0  0  0  0  0
    3.1085    0.0400    4.1450 H   0  0  0  0  0  0  0  0  0  0  0  0
   -2.0825    0.0018    1.7277 H   0  0  0  0  0  0  0  0  0  0  0  0
    2.2933    0.0551   -0.3094 Au  0  0  0  0  0  0  0  0  0  0  0  0
  1 25  1  0  0  0  0
  1 23  1  0  0  0  0
  2 26  1  6  0  0  0
  2  1  1  0  0  0  0
  2  3  1  0  0  0  0
  3  4  1  0  0  0  0
  3 28  1  0  0  0  0
  4 29  1  1  0  0  0
  4  5  1  0  0  0  0
  5 30  1  0  0  0  0
  5 32  1  0  0  0  0
  6 33  1  0  0  0  0
  6  4  1  0  0  0  0
  7  8  1  0  0  0  0
  7  6  1  0  0  0  0
  8  2  1  0  0  0  0
  8 36  1  0  0  0  0
  9  7  1  0  0  0  0
 10  9  2  0  0  0  0
 11 12  1  0  0  0  0
 11  9  1  0  0  0  0
 12 37  1  0  0  0  0
 13 38  1  0  0  0  0
 13 12  2  0  0  0  0
 14 20  1  6  0  0  0
 14 13  1  0  0  0  0
 15 14  1  0  0  0  0
 15 16  1  0  0  0  0
 16 11  2  0  0  0  0
 17 15  2  0  0  0  0
 18 19  1  0  0  0  0
 18 17  2  0  0  0  0
 19 20  1  0  0  0  0
 20 21  2  0  0  0  0
 22 18  1  0  0  0  0
 24  1  1  0  0  0  0
 27  3  1  0  0  0  0
 31  5  1  0  0  0  0
 34  6  1  0  0  0  0
 35  8  1  0  0  0  0
 39 16  1  0  0  0  0
 40 19  1  0  0  0  0
 41 22  1  0  0  0  0
M  RAD  1  14   2
M  END
