009-467-726.xyz
 OpenBabel07262113413D
O=C(N(c1ccc2c(c1)cccc2)C)c1ccc2c(c1)nc(n(c2=O)C)S
 44 47  0  0  1  0  0  0  0  0999 V2000
   -3.5623    0.9318    7.6597 O   0  0  0  0  0  0  0  0  0  0  0  0
   -3.5087    0.1237    6.7513 C   0  0  0  0  0  0  0  0  0  0  0  0
   -4.5930   -0.6673    6.3713 N   0  0  0  0  0  0  0  0  0  0  0  0
   -5.9031   -0.3532    6.8252 C   0  0  0  0  0  0  0  0  0  0  0  0
   -6.2944    1.0116    6.9893 C   0  0  0  0  0  0  0  0  0  0  0  0
   -7.5751    1.3299    7.3668 C   0  0  0  0  0  0  0  0  0  0  0  0
   -8.5566    0.3273    7.6031 C   0  0  0  0  0  0  0  0  0  0  0  0
   -8.1754   -1.0408    7.4266 C   0  0  0  0  0  0  0  0  0  0  0  0
   -6.8436   -1.3482    7.0360 C   0  0  0  0  0  0  0  0  0  0  0  0
   -9.1460   -2.0551    7.6528 C   0  0  0  0  0  0  0  0  0  0  0  0
  -10.4307   -1.7308    8.0371 C   0  0  0  0  0  0  0  0  0  0  0  0
  -10.8061   -0.3758    8.2109 C   0  0  0  0  0  0  0  0  0  0  0  0
   -9.8861    0.6304    7.9975 C   0  0  0  0  0  0  0  0  0  0  0  0
   -4.3821   -1.9922    5.7988 C   0  0  0  0  0  0  0  0  0  0  0  0
   -2.2421    0.0014    5.9450 C   0  0  0  0  0  0  0  0  0  0  0  0
   -1.0099    0.0435    6.6338 C   0  0  0  0  0  0  0  0  0  0  0  0
    0.1795    0.0314    5.9243 C   0  0  0  0  0  0  0  0  0  0  0  0
    0.1621    0.0094    4.5183 C   0  0  1  0  0  0  0  0  0  0  0  0
   -1.0646    0.0012    3.8165 C   0  0  0  0  0  0  0  0  0  0  0  0
   -2.2672   -0.0086    4.5538 C   0  0  0  0  0  0  0  0  0  0  0  0
   -1.1149   -0.0009    2.4414 N   0  0  0  0  0  0  0  0  0  0  0  0
    0.0000    0.0000    1.7768 C   0  0  0  0  0  0  0  0  0  0  0  0
    1.2548    0.0000    2.3573 N   0  0  0  0  0  0  0  0  0  0  0  0
    1.4204    0.0042    3.7674 C   0  0  0  0  0  0  0  0  0  0  0  0
    2.5307    0.0036    4.2665 O   0  0  0  0  0  0  0  0  0  0  0  0
    2.4692   -0.0015    1.5424 C   0  0  0  0  0  0  0  0  0  0  0  0
    0.0000    0.0000    0.0000 S   0  0  0  0  0  0  0  0  0  0  0  0
   -5.5675    1.8025    6.8216 H   0  0  0  0  0  0  0  0  0  0  0  0
   -7.8562    2.3794    7.4861 H   0  0  0  0  0  0  0  0  0  0  0  0
   -6.5872   -2.3996    6.9144 H   0  0  0  0  0  0  0  0  0  0  0  0
   -8.8565   -3.1009    7.5196 H   0  0  0  0  0  0  0  0  0  0  0  0
  -11.1651   -2.5213    8.2095 H   0  0  0  0  0  0  0  0  0  0  0  0
  -11.8266   -0.1314    8.5149 H   0  0  0  0  0  0  0  0  0  0  0  0
  -10.1691    1.6780    8.1304 H   0  0  0  0  0  0  0  0  0  0  0  0
   -3.3604   -2.0808    5.4214 H   0  0  0  0  0  0  0  0  0  0  0  0
   -5.0873   -2.1712    4.9731 H   0  0  0  0  0  0  0  0  0  0  0  0
   -4.5275   -2.7801    6.5569 H   0  0  0  0  0  0  0  0  0  0  0  0
   -1.0170    0.0922    7.7235 H   0  0  0  0  0  0  0  0  0  0  0  0
    1.1477    0.0473    6.4274 H   0  0  0  0  0  0  0  0  0  0  0  0
   -3.2092   -0.0114    4.0033 H   0  0  0  0  0  0  0  0  0  0  0  0
    3.3200   -0.0008    2.2323 H   0  0  0  0  0  0  0  0  0  0  0  0
    2.5037   -0.8983    0.9064 H   0  0  0  0  0  0  0  0  0  0  0  0
    2.5040    0.8936    0.9041 H   0  0  0  0  0  0  0  0  0  0  0  0
   -2.2920    0.0312   -0.3184 Au  0  0  0  0  0  0  0  0  0  0  0  0
  2  1  2  0  0  0  0
  3  2  1  0  0  0  0
  3  4  1  0  0  0  0
  4  5  2  0  0  0  0
  4  9  1  0  0  0  0
  5  6  1  0  0  0  0
  6 29  1  0  0  0  0
  6  7  2  0  0  0  0
  7 13  1  0  0  0  0
  8  7  1  0  0  0  0
  8 10  1  0  0  0  0
  9  8  2  0  0  0  0
 10 11  2  0  0  0  0
 11 32  1  0  0  0  0
 11 12  1  0  0  0  0
 12 33  1  0  0  0  0
 13 34  1  0  0  0  0
 13 12  2  0  0  0  0
 14  3  1  0  0  0  0
 14 37  1  0  0  0  0
 15 16  1  0  0  0  0
 15  2  1  0  0  0  0
 16 38  1  0  0  0  0
 17 39  1  0  0  0  0
 17 16  2  0  0  0  0
 18 24  1  6  0  0  0
 18 17  1  0  0  0  0
 19 18  1  0  0  0  0
 19 20  1  0  0  0  0
 20 15  2  0  0  0  0
 21 19  2  0  0  0  0
 22 23  1  0  0  0  0
 22 21  2  0  0  0  0
 23 24  1  0  0  0  0
 24 25  2  0  0  0  0
 26 41  1  0  0  0  0
 26 23  1  0  0  0  0
 27 22  1  0  0  0  0
 28  5  1  0  0  0  0
 30  9  1  0  0  0  0
 31 10  1  0  0  0  0
 35 14  1  0  0  0  0
 36 14  1  0  0  0  0
 40 20  1  0  0  0  0
 42 26  1  0  0  0  0
 43 26  1  0  0  0  0
 44 27  1  0  0  0  0
M  RAD  1  18   2
M  END
