009-318-593.xyz
 OpenBabel07262113403D
N#Cc1ccc(cc1)CN(C(=O)c1ccc2c(c1)nc([nH]c2=O)S)C
 39 41  0  0  1  0  0  0  0  0999 V2000
    6.2991   -4.6863   12.7675 N   0  0  0  0  0  0  0  0  0  0  0  0
    6.1859   -3.9731   11.8583 C   0  0  0  0  0  0  0  0  0  0  0  0
    6.0462   -3.0936   10.7329 C   0  0  0  0  0  0  0  0  0  0  0  0
    5.0674   -2.0807   10.7414 C   0  0  0  0  0  0  0  0  0  0  0  0
    4.9340   -1.2309    9.6483 C   0  0  0  0  0  0  0  0  0  0  0  0
    5.7695   -1.3721    8.5268 C   0  0  0  0  0  0  0  0  0  0  0  0
    6.7417   -2.3807    8.5265 C   0  0  0  0  0  0  0  0  0  0  0  0
    6.8865   -3.2383    9.6165 C   0  0  0  0  0  0  0  0  0  0  0  0
    5.5918   -0.4576    7.3330 C   0  0  0  0  0  0  0  0  0  0  0  0
    4.3462   -0.6973    6.6049 N   0  0  0  0  0  0  0  0  0  0  0  0
    3.2681    0.0981    6.9061 C   0  0  0  0  0  0  0  0  0  0  0  0
    3.2890    0.8978    7.8340 O   0  0  0  0  0  0  0  0  0  0  0  0
    2.0435    0.0002    6.0364 C   0  0  0  0  0  0  0  0  0  0  0  0
    0.7834    0.0386    6.6712 C   0  0  0  0  0  0  0  0  0  0  0  0
   -0.3749    0.0260    5.9108 C   0  0  0  0  0  0  0  0  0  0  0  0
   -0.2981    0.0059    4.5086 C   0  0  2  0  0  0  0  0  0  0  0  0
    0.9598    0.0003    3.8563 C   0  0  0  0  0  0  0  0  0  0  0  0
    2.1269   -0.0085    4.6468 C   0  0  0  0  0  0  0  0  0  0  0  0
    1.0838    0.0000    2.4788 N   0  0  0  0  0  0  0  0  0  0  0  0
   -0.0000   -0.0000    1.7700 C   0  0  0  0  0  0  0  0  0  0  0  0
   -1.2609   -0.0017    2.3206 N   0  0  0  0  0  0  0  0  0  0  0  0
   -1.5256    0.0011    3.7001 C   0  0  0  0  0  0  0  0  0  0  0  0
   -2.6674    0.0002    4.1137 O   0  0  0  0  0  0  0  0  0  0  0  0
    0.0000    0.0000    0.0000 S   0  0  0  0  0  0  0  0  0  0  0  0
    4.3004   -1.9117    5.8088 C   0  0  0  0  0  0  0  0  0  0  0  0
    4.4201   -1.9668   11.6126 H   0  0  0  0  0  0  0  0  0  0  0  0
    4.1811   -0.4403    9.6470 H   0  0  0  0  0  0  0  0  0  0  0  0
    7.3997   -2.4960    7.6612 H   0  0  0  0  0  0  0  0  0  0  0  0
    7.6458   -4.0220    9.6099 H   0  0  0  0  0  0  0  0  0  0  0  0
    5.5762    0.5886    7.6641 H   0  0  0  0  0  0  0  0  0  0  0  0
    6.4300   -0.5921    6.6304 H   0  0  0  0  0  0  0  0  0  0  0  0
    0.7433    0.0855    7.7601 H   0  0  0  0  0  0  0  0  0  0  0  0
   -1.3640    0.0399    6.3722 H   0  0  0  0  0  0  0  0  0  0  0  0
    3.0892   -0.0043    4.1339 H   0  0  0  0  0  0  0  0  0  0  0  0
   -2.0819   -0.0001    1.7206 H   0  0  0  0  0  0  0  0  0  0  0  0
    2.2872    0.0454   -0.3361 Au  0  0  0  0  0  0  0  0  0  0  0  0
    3.2702   -2.1593    5.5336 H   0  0  0  0  0  0  0  0  0  0  0  0
    4.7070   -2.7530    6.3943 H   0  0  0  0  0  0  0  0  0  0  0  0
    4.8984   -1.8156    4.8855 H   0  0  0  0  0  0  0  0  0  0  0  0
  2  1  3  0  0  0  0
  3  4  1  0  0  0  0
  3  2  1  0  0  0  0
  4 26  1  0  0  0  0
  5  4  2  0  0  0  0
  6  5  1  0  0  0  0
  7  6  2  0  0  0  0
  7  8  1  0  0  0  0
  8  3  2  0  0  0  0
  9 30  1  0  0  0  0
  9  6  1  0  0  0  0
 10 11  1  0  0  0  0
 10  9  1  0  0  0  0
 11 12  2  0  0  0  0
 13 14  1  0  0  0  0
 13 11  1  0  0  0  0
 14 32  1  0  0  0  0
 15 33  1  0  0  0  0
 15 14  2  0  0  0  0
 16 22  1  6  0  0  0
 16 15  1  0  0  0  0
 17 16  1  0  0  0  0
 17 18  1  0  0  0  0
 18 13  2  0  0  0  0
 19 17  2  0  0  0  0
 20 21  1  0  0  0  0
 20 19  2  0  0  0  0
 21 22  1  0  0  0  0
 22 23  2  0  0  0  0
 24 20  1  0  0  0  0
 25 38  1  0  0  0  0
 25 10  1  0  0  0  0
 27  5  1  0  0  0  0
 28  7  1  0  0  0  0
 29  8  1  0  0  0  0
 31  9  1  0  0  0  0
 34 18  1  0  0  0  0
 35 21  1  0  0  0  0
 36 24  1  0  0  0  0
 37 25  1  0  0  0  0
 39 25  1  0  0  0  0
M  RAD  1  16   2
M  END
