009-346-159.xyz
 OpenBabel07262113413D
O=C(c1ccc2c(c1)nc(n(c2=O)C)S)Nc1ccc2c(c1)cccn2
 40 43  0  0  1  0  0  0  0  0999 V2000
    4.0027    0.6910    7.5908 O   0  0  0  0  0  0  0  0  0  0  0  0
    3.9337    0.2500    6.4563 C   0  0  0  0  0  0  0  0  0  0  0  0
    2.6146    0.1863    5.7276 C   0  0  0  0  0  0  0  0  0  0  0  0
    1.4459    0.2367    6.5216 C   0  0  0  0  0  0  0  0  0  0  0  0
    0.1943    0.1934    5.9299 C   0  0  0  0  0  0  0  0  0  0  0  0
    0.0810    0.1197    4.5309 C   0  0  2  0  0  0  0  0  0  0  0  0
    1.2382    0.0862    3.7234 C   0  0  0  0  0  0  0  0  0  0  0  0
    2.5059    0.1232    4.3416 C   0  0  0  0  0  0  0  0  0  0  0  0
    1.1636   -0.0000    2.3529 N   0  0  0  0  0  0  0  0  0  0  0  0
   -0.0000    0.0000    1.7887 C   0  0  0  0  0  0  0  0  0  0  0  0
   -1.2035    0.0799    2.4754 N   0  0  0  0  0  0  0  0  0  0  0  0
   -1.2403    0.0937    3.8936 C   0  0  0  0  0  0  0  0  0  0  0  0
   -2.2985    0.1048    4.4949 O   0  0  0  0  0  0  0  0  0  0  0  0
   -2.4972    0.1576    1.7990 C   0  0  0  0  0  0  0  0  0  0  0  0
    0.0000    0.0000    0.0000 S   0  0  0  0  0  0  0  0  0  0  0  0
    5.0062   -0.2368    5.7464 N   0  0  0  0  0  0  0  0  0  0  0  0
    6.3621   -0.2907    6.1076 C   0  0  0  0  0  0  0  0  0  0  0  0
    6.8459    0.2289    7.3455 C   0  0  0  0  0  0  0  0  0  0  0  0
    8.1873    0.1550    7.6431 C   0  0  0  0  0  0  0  0  0  0  0  0
    9.1205   -0.4311    6.7462 C   0  0  0  0  0  0  0  0  0  0  0  0
    8.6315   -0.9529    5.5034 C   0  0  1  0  0  0  0  0  0  0  0  0
    7.2496   -0.8686    5.2107 C   0  0  0  0  0  0  0  0  0  0  0  0
    9.5825   -1.5338    4.6219 C   0  0  0  0  0  0  0  0  0  0  0  0
   10.9074   -1.5703    4.9926 C   0  0  0  0  0  0  0  0  0  0  0  0
   11.2829   -1.0239    6.2494 C   0  0  0  0  0  0  0  0  0  0  0  0
   10.4349   -0.4780    7.0924 N   0  0  0  0  0  0  0  0  0  0  0  0
    1.5637    0.3120    7.6032 H   0  0  0  0  0  0  0  0  0  0  0  0
   -0.7215    0.2215    6.5225 H   0  0  0  0  0  0  0  0  0  0  0  0
    3.3716    0.1262    3.6767 H   0  0  0  0  0  0  0  0  0  0  0  0
   -3.2225    0.5443    2.5224 H   0  0  0  0  0  0  0  0  0  0  0  0
   -2.8285   -0.8397    1.4681 H   0  0  0  0  0  0  0  0  0  0  0  0
   -2.4194    0.8107    0.9231 H   0  0  0  0  0  0  0  0  0  0  0  0
   -0.9494   -2.0440   -0.4938 Au  0  0  0  0  0  0  0  0  0  0  0  0
    4.7897   -0.6606    4.8530 H   0  0  0  0  0  0  0  0  0  0  0  0
    6.1359    0.6732    8.0379 H   0  0  0  0  0  0  0  0  0  0  0  0
    8.5750    0.5469    8.5850 H   0  0  0  0  0  0  0  0  0  0  0  0
    6.8871   -1.2672    4.2581 H   0  0  0  0  0  0  0  0  0  0  0  0
    9.2509   -1.9431    3.6636 H   0  0  0  0  0  0  0  0  0  0  0  0
   11.6670   -2.0085    4.3417 H   0  0  0  0  0  0  0  0  0  0  0  0
   12.3368   -1.0486    6.5535 H   0  0  0  0  0  0  0  0  0  0  0  0
  2  1  2  0  0  0  0
  3  2  1  0  0  0  0
  3  4  1  0  0  0  0
  4 27  1  0  0  0  0
  5  4  2  0  0  0  0
  5 28  1  0  0  0  0
  6  7  1  6  0  0  0
  6  5  1  0  0  0  0
  7  8  1  0  0  0  0
  8  3  2  0  0  0  0
  9  7  2  0  0  0  0
 10  9  2  0  0  0  0
 10 11  1  0  0  0  0
 11 12  1  0  0  0  0
 12 13  2  0  0  0  0
 12  6  1  0  0  0  0
 14 11  1  0  0  0  0
 14 30  1  0  0  0  0
 15 10  1  0  0  0  0
 16 17  1  0  0  0  0
 16  2  1  0  0  0  0
 17 18  1  0  0  0  0
 18 19  2  0  0  0  0
 18 35  1  0  0  0  0
 19 36  1  0  0  0  0
 20 26  2  0  0  0  0
 20 19  1  0  0  0  0
 21 23  1  6  0  0  0
 21 20  1  0  0  0  0
 22 21  1  0  0  0  0
 22 17  2  0  0  0  0
 23 24  2  0  0  0  0
 24 25  1  0  0  0  0
 25 40  1  0  0  0  0
 25 26  2  0  0  0  0
 29  8  1  0  0  0  0
 31 14  1  0  0  0  0
 32 14  1  0  0  0  0
 33 15  1  0  0  0  0
 34 16  1  0  0  0  0
 37 22  1  0  0  0  0
 38 23  1  0  0  0  0
 39 24  1  0  0  0  0
M  RAD  2   6   2  21   2
M  END
