009-042-262.xyz
 OpenBabel07262113403D
Sc1nc2cc(ccc2c(=O)[nH]1)C(=O)NC(c1cc2c(o1)cccc2)C
 41 44  0  0  1  0  0  0  0  0999 V2000
    0.0000    0.0000    0.0000 S   0  0  0  0  0  0  0  0  0  0  0  0
    0.0000    0.0000    1.7774 C   0  0  0  0  0  0  0  0  0  0  0  0
   -1.1519   -0.0860    2.3489 N   0  0  0  0  0  0  0  0  0  0  0  0
   -1.1865   -0.2230    3.7250 C   0  0  0  0  0  0  0  0  0  0  0  0
   -2.4348   -0.3552    4.3651 C   0  0  0  0  0  0  0  0  0  0  0  0
   -2.5121   -0.4732    5.7506 C   0  0  0  0  0  0  0  0  0  0  0  0
   -1.3350   -0.4365    6.5282 C   0  0  0  0  0  0  0  0  0  0  0  0
   -0.0976   -0.3139    5.9154 C   0  0  0  0  0  0  0  0  0  0  0  0
   -0.0120   -0.2106    4.5179 C   0  0  2  0  0  0  0  0  0  0  0  0
    1.2980   -0.0878    3.8590 C   0  0  0  0  0  0  0  0  0  0  0  0
    2.3839   -0.0708    4.4036 O   0  0  0  0  0  0  0  0  0  0  0  0
    1.1921    0.0000    2.4621 N   0  0  0  0  0  0  0  0  0  0  0  0
   -3.8189   -0.6047    6.4901 C   0  0  0  0  0  0  0  0  0  0  0  0
   -3.9081   -0.3442    7.6816 O   0  0  0  0  0  0  0  0  0  0  0  0
   -4.8820   -1.0335    5.7537 N   0  0  0  0  0  0  0  0  0  0  0  0
   -6.1986   -1.2232    6.3539 C   0  0  1  0  0  0  0  0  0  0  0  0
   -7.2452   -0.9485    5.3239 C   0  0  0  0  0  0  0  0  0  0  0  0
   -8.3155   -0.1089    5.2758 C   0  0  0  0  0  0  0  0  0  0  0  0
   -8.9546   -0.3310    3.9973 C   0  0  0  0  0  0  0  0  0  0  0  0
   -8.1781   -1.3216    3.3586 C   0  0  0  0  0  0  0  0  0  0  0  0
   -7.1441   -1.6953    4.1703 O   0  0  0  0  0  0  0  0  0  0  0  0
   -8.4553   -1.8181    2.0895 C   0  0  0  0  0  0  0  0  0  0  0  0
   -9.5726   -1.2853    1.4422 C   0  0  0  0  0  0  0  0  0  0  0  0
  -10.3687   -0.2961    2.0528 C   0  0  0  0  0  0  0  0  0  0  0  0
  -10.0730    0.1896    3.3260 C   0  0  0  0  0  0  0  0  0  0  0  0
   -6.3426   -2.6192    6.9800 C   0  0  0  0  0  0  0  0  0  0  0  0
    1.8040    1.3085   -0.5813 Au  0  0  0  0  0  0  0  0  0  0  0  0
   -3.3209   -0.3315    3.7289 H   0  0  0  0  0  0  0  0  0  0  0  0
   -1.4341   -0.5038    7.6122 H   0  0  0  0  0  0  0  0  0  0  0  0
    0.8286   -0.2922    6.4925 H   0  0  0  0  0  0  0  0  0  0  0  0
    2.0706    0.0341    1.9532 H   0  0  0  0  0  0  0  0  0  0  0  0
   -4.7451   -1.3805    4.8125 H   0  0  0  0  0  0  0  0  0  0  0  0
   -6.2923   -0.4698    7.1483 H   0  0  0  0  0  0  0  0  0  0  0  0
   -8.6124    0.5891    6.0550 H   0  0  0  0  0  0  0  0  0  0  0  0
   -7.8282   -2.5842    1.6311 H   0  0  0  0  0  0  0  0  0  0  0  0
   -9.8333   -1.6430    0.4437 H   0  0  0  0  0  0  0  0  0  0  0  0
  -11.2345    0.0965    1.5148 H   0  0  0  0  0  0  0  0  0  0  0  0
  -10.6956    0.9575    3.7902 H   0  0  0  0  0  0  0  0  0  0  0  0
   -5.5613   -2.7614    7.7403 H   0  0  0  0  0  0  0  0  0  0  0  0
   -7.3273   -2.7262    7.4598 H   0  0  0  0  0  0  0  0  0  0  0  0
   -6.2449   -3.4000    6.2104 H   0  0  0  0  0  0  0  0  0  0  0  0
  1  2  1  0  0  0  0
  2  3  2  0  0  0  0
  2 12  1  0  0  0  0
  3  4  2  0  0  0  0
  4  5  1  0  0  0  0
  5  6  2  0  0  0  0
  6 13  1  0  0  0  0
  6  7  1  0  0  0  0
  7 29  1  0  0  0  0
  8 30  1  0  0  0  0
  8  7  2  0  0  0  0
  9  4  1  1  0  0  0
  9  8  1  0  0  0  0
 10 11  2  0  0  0  0
 10  9  1  0  0  0  0
 12 10  1  0  0  0  0
 13 14  2  0  0  0  0
 15 16  1  0  0  0  0
 15 13  1  0  0  0  0
 16 26  1  0  0  0  0
 16 33  1  1  0  0  0
 17 16  1  0  0  0  0
 18 17  2  0  0  0  0
 18 34  1  0  0  0  0
 19 18  1  0  0  0  0
 20 19  1  0  0  0  0
 20 21  1  0  0  0  0
 21 17  1  0  0  0  0
 22 20  2  0  0  0  0
 23 24  2  0  0  0  0
 23 22  1  0  0  0  0
 24 25  1  0  0  0  0
 25 38  1  0  0  0  0
 25 19  2  0  0  0  0
 26 40  1  0  0  0  0
 26 39  1  0  0  0  0
 27  1  1  0  0  0  0
 28  5  1  0  0  0  0
 31 12  1  0  0  0  0
 32 15  1  0  0  0  0
 35 22  1  0  0  0  0
 36 23  1  0  0  0  0
 37 24  1  0  0  0  0
 41 26  1  0  0  0  0
M  RAD  1   9   2
M  END
