009-042-243.xyz
 OpenBabel07262113403D
COc1ccc(cn1)NC(=O)c1ccc2c(c1)nc([nH]c2=O)S
 35 37  0  0  1  0  0  0  0  0999 V2000
    6.6648   -1.6545   13.2140 C   0  0  0  0  0  0  0  0  0  0  0  0
    7.0847   -1.0585   11.9965 O   0  0  0  0  0  0  0  0  0  0  0  0
    6.1653   -0.9155   11.0239 C   0  0  0  0  0  0  0  0  0  0  0  0
    6.5804   -0.3248    9.8144 C   0  0  0  0  0  0  0  0  0  0  0  0
    5.6559   -0.1658    8.7949 C   0  0  0  0  0  0  0  0  0  0  0  0
    4.3302   -0.6015    9.0076 C   0  0  1  0  0  0  0  0  0  0  0  0
    4.0306   -1.1737   10.2491 C   0  0  0  0  0  0  0  0  0  0  0  0
    4.9223   -1.3269   11.2288 N   0  0  0  0  0  0  0  0  0  0  0  0
    3.2994   -0.4905    8.0595 N   0  0  0  0  0  0  0  0  0  0  0  0
    3.3720   -0.0078    6.7762 C   0  0  0  0  0  0  0  0  0  0  0  0
    4.4046    0.3814    6.2543 O   0  0  0  0  0  0  0  0  0  0  0  0
    2.0641   -0.0099    6.0265 C   0  0  0  0  0  0  0  0  0  0  0  0
    0.8028    0.0079    6.6648 C   0  0  0  0  0  0  0  0  0  0  0  0
   -0.3593    0.0126    5.9078 C   0  0  0  0  0  0  0  0  0  0  0  0
   -0.2870    0.0019    4.5069 C   0  0  2  0  0  0  0  0  0  0  0  0
    0.9704    0.0010    3.8512 C   0  0  0  0  0  0  0  0  0  0  0  0
    2.1391    0.0031    4.6367 C   0  0  0  0  0  0  0  0  0  0  0  0
    1.0863    0.0000    2.4740 N   0  0  0  0  0  0  0  0  0  0  0  0
   -0.0000    0.0000    1.7686 C   0  0  0  0  0  0  0  0  0  0  0  0
   -1.2597   -0.0003    2.3243 N   0  0  0  0  0  0  0  0  0  0  0  0
   -1.5184    0.0017    3.7035 C   0  0  0  0  0  0  0  0  0  0  0  0
   -2.6580    0.0029    4.1243 O   0  0  0  0  0  0  0  0  0  0  0  0
    0.0000    0.0000    0.0000 S   0  0  0  0  0  0  0  0  0  0  0  0
    7.5510   -1.6771   13.8615 H   0  0  0  0  0  0  0  0  0  0  0  0
    6.2880   -2.6766   13.0505 H   0  0  0  0  0  0  0  0  0  0  0  0
    5.8618   -1.0697   13.6901 H   0  0  0  0  0  0  0  0  0  0  0  0
    7.6170   -0.0055    9.7005 H   0  0  0  0  0  0  0  0  0  0  0  0
    5.9277    0.2792    7.8408 H   0  0  0  0  0  0  0  0  0  0  0  0
    3.0106   -1.5250   10.4559 H   0  0  0  0  0  0  0  0  0  0  0  0
    2.4103   -0.8812    8.3460 H   0  0  0  0  0  0  0  0  0  0  0  0
    0.7277    0.0563    7.7532 H   0  0  0  0  0  0  0  0  0  0  0  0
   -1.3462    0.0345    6.3735 H   0  0  0  0  0  0  0  0  0  0  0  0
    3.1140    0.0153    4.1498 H   0  0  0  0  0  0  0  0  0  0  0  0
   -2.0824    0.0008    1.7267 H   0  0  0  0  0  0  0  0  0  0  0  0
    2.2936    0.0222   -0.3135 Au  0  0  0  0  0  0  0  0  0  0  0  0
  1 26  1  0  0  0  0
  1 24  1  0  0  0  0
  2  1  1  0  0  0  0
  3  8  2  0  0  0  0
  3  2  1  0  0  0  0
  4  3  1  0  0  0  0
  5  6  1  0  0  0  0
  5  4  2  0  0  0  0
  6  9  1  1  0  0  0
  6  7  1  0  0  0  0
  7 29  1  0  0  0  0
  7  8  2  0  0  0  0
  9 30  1  0  0  0  0
 10  9  1  0  0  0  0
 11 10  2  0  0  0  0
 12 13  1  0  0  0  0
 12 10  1  0  0  0  0
 13 31  1  0  0  0  0
 14 32  1  0  0  0  0
 14 13  2  0  0  0  0
 15 21  1  6  0  0  0
 15 14  1  0  0  0  0
 16 15  1  0  0  0  0
 16 17  1  0  0  0  0
 17 12  2  0  0  0  0
 18 16  2  0  0  0  0
 19 20  1  0  0  0  0
 19 18  2  0  0  0  0
 20 21  1  0  0  0  0
 21 22  2  0  0  0  0
 23 19  1  0  0  0  0
 25  1  1  0  0  0  0
 27  4  1  0  0  0  0
 28  5  1  0  0  0  0
 33 17  1  0  0  0  0
 34 20  1  0  0  0  0
 35 23  1  0  0  0  0
M  RAD  2   6   2  15   2
M  END
