009-042-250.xyz
 OpenBabel07262113403D
Cc1ccc(c(c1)C)C(=O)NNC(=O)c1ccc2c(c1)nc([nH]c2=O)S
 42 44  0  0  1  0  0  0  0  0999 V2000
    9.0660   -1.8495   13.4308 C   0  0  0  0  0  0  0  0  0  0  0  0
    7.8845   -1.5917   12.5331 C   0  0  0  0  0  0  0  0  0  0  0  0
    6.6170   -2.1035   12.8489 C   0  0  0  0  0  0  0  0  0  0  0  0
    5.5361   -1.8606   12.0134 C   0  0  0  0  0  0  0  0  0  0  0  0
    5.6690   -1.1097   10.8309 C   0  0  0  0  0  0  0  0  0  0  0  0
    4.3929   -0.9599   10.0604 C   0  0  0  0  0  0  0  0  0  0  0  0
    3.3026   -1.3136   10.5075 O   0  0  0  0  0  0  0  0  0  0  0  0
    4.4465   -0.4206    8.8091 N   0  0  0  0  0  0  0  0  0  0  0  0
    3.2766   -0.3590    8.0923 N   0  0  0  0  0  0  0  0  0  0  0  0
    3.3538   -0.0193    6.7787 C   0  0  0  0  0  0  0  0  0  0  0  0
    4.4374    0.2509    6.2675 O   0  0  0  0  0  0  0  0  0  0  0  0
    2.0596   -0.0080    6.0270 C   0  0  0  0  0  0  0  0  0  0  0  0
    0.7998    0.0052    6.6680 C   0  0  0  0  0  0  0  0  0  0  0  0
   -0.3605    0.0078    5.9096 C   0  0  0  0  0  0  0  0  0  0  0  0
   -0.2873    0.0005    4.5079 C   0  0  2  0  0  0  0  0  0  0  0  0
    0.9698    0.0000    3.8519 C   0  0  0  0  0  0  0  0  0  0  0  0
    2.1385    0.0003    4.6376 C   0  0  0  0  0  0  0  0  0  0  0  0
    1.0861   -0.0000    2.4744 N   0  0  0  0  0  0  0  0  0  0  0  0
   -0.0000    0.0000    1.7692 C   0  0  0  0  0  0  0  0  0  0  0  0
    0.0000    0.0000    0.0000 S   0  0  0  0  0  0  0  0  0  0  0  0
   -1.2595   -0.0002    2.3246 N   0  0  0  0  0  0  0  0  0  0  0  0
   -1.5184    0.0016    3.7042 C   0  0  0  0  0  0  0  0  0  0  0  0
   -2.6583    0.0037    4.1239 O   0  0  0  0  0  0  0  0  0  0  0  0
    6.9379   -0.5776   10.4947 C   0  0  0  0  0  0  0  0  0  0  0  0
    7.2202    0.2611    9.2699 C   0  0  0  0  0  0  0  0  0  0  0  0
    8.0104   -0.8360   11.3630 C   0  0  0  0  0  0  0  0  0  0  0  0
    8.8693   -1.4959   14.4562 H   0  0  0  0  0  0  0  0  0  0  0  0
    9.2809   -2.9290   13.5000 H   0  0  0  0  0  0  0  0  0  0  0  0
    9.9729   -1.3468   13.0652 H   0  0  0  0  0  0  0  0  0  0  0  0
    6.4790   -2.6940   13.7586 H   0  0  0  0  0  0  0  0  0  0  0  0
    4.5439   -2.2453   12.2520 H   0  0  0  0  0  0  0  0  0  0  0  0
    5.2687   -0.2155    8.2518 H   0  0  0  0  0  0  0  0  0  0  0  0
    2.4853   -0.7603    8.5894 H   0  0  0  0  0  0  0  0  0  0  0  0
    0.7274    0.0442    7.7564 H   0  0  0  0  0  0  0  0  0  0  0  0
   -1.3478    0.0233    6.3746 H   0  0  0  0  0  0  0  0  0  0  0  0
    3.1144    0.0066    4.1530 H   0  0  0  0  0  0  0  0  0  0  0  0
    2.2936    0.0190   -0.3124 Au  0  0  0  0  0  0  0  0  0  0  0  0
   -2.0823    0.0009    1.7273 H   0  0  0  0  0  0  0  0  0  0  0  0
    7.1639   -0.3312    8.3390 H   0  0  0  0  0  0  0  0  0  0  0  0
    6.5220    1.1061    9.1714 H   0  0  0  0  0  0  0  0  0  0  0  0
    8.2370    0.6739    9.3138 H   0  0  0  0  0  0  0  0  0  0  0  0
    8.9901   -0.4211   11.1104 H   0  0  0  0  0  0  0  0  0  0  0  0
  1 28  1  0  0  0  0
  1 27  1  0  0  0  0
  2  3  1  0  0  0  0
  2  1  1  0  0  0  0
  3 30  1  0  0  0  0
  4 31  1  0  0  0  0
  4  3  2  0  0  0  0
  5  4  1  0  0  0  0
  6  7  2  0  0  0  0
  6  5  1  0  0  0  0
  8  6  1  0  0  0  0
  9 33  1  0  0  0  0
  9  8  1  0  0  0  0
 10  9  1  0  0  0  0
 11 10  2  0  0  0  0
 12 13  1  0  0  0  0
 12 10  1  0  0  0  0
 13 34  1  0  0  0  0
 14 35  1  0  0  0  0
 14 13  2  0  0  0  0
 15 22  1  6  0  0  0
 15 14  1  0  0  0  0
 16 15  1  0  0  0  0
 16 17  1  0  0  0  0
 17 12  2  0  0  0  0
 18 16  2  0  0  0  0
 19 21  1  0  0  0  0
 19 18  2  0  0  0  0
 20 19  1  0  0  0  0
 21 22  1  0  0  0  0
 22 23  2  0  0  0  0
 24  5  2  0  0  0  0
 24 26  1  0  0  0  0
 25 41  1  0  0  0  0
 25 24  1  0  0  0  0
 26  2  2  0  0  0  0
 29  1  1  0  0  0  0
 32  8  1  0  0  0  0
 36 17  1  0  0  0  0
 37 20  1  0  0  0  0
 38 21  1  0  0  0  0
 39 25  1  0  0  0  0
 40 25  1  0  0  0  0
 42 26  1  0  0  0  0
M  RAD  1  15   2
M  END
