009-318-563.xyz
 OpenBabel07262113403D
Fc1ccc(c(c1)F)CN(C(=O)c1ccc2c(c1)nc([nH]c2=O)S)C
 38 40  0  0  1  0  0  0  0  0999 V2000
   -4.7848   -1.7560   12.6714 F   0  0  0  0  0  0  0  0  0  0  0  0
   -4.9407   -1.0122   11.5695 C   0  0  0  0  0  0  0  0  0  0  0  0
   -5.3217   -1.6254   10.3778 C   0  0  0  0  0  0  0  0  0  0  0  0
   -5.4825   -0.8358    9.2382 C   0  0  0  0  0  0  0  0  0  0  0  0
   -5.2717    0.5510    9.2712 C   0  0  0  0  0  0  0  0  0  0  0  0
   -4.8807    1.1095   10.4916 C   0  0  0  0  0  0  0  0  0  0  0  0
   -4.7137    0.3596   11.6515 C   0  0  0  0  0  0  0  0  0  0  0  0
   -4.6523    2.4360   10.5531 F   0  0  0  0  0  0  0  0  0  0  0  0
   -5.4055    1.4039    8.0304 C   0  0  0  0  0  0  0  0  0  0  0  0
   -4.1466    1.5111    7.2887 N   0  0  0  0  0  0  0  0  0  0  0  0
   -3.8744    0.5136    6.3905 C   0  0  0  0  0  0  0  0  0  0  0  0
   -4.6931   -0.3551    6.1157 O   0  0  0  0  0  0  0  0  0  0  0  0
   -2.5115    0.4824    5.7472 C   0  0  0  0  0  0  0  0  0  0  0  0
   -1.3328    0.4631    6.5247 C   0  0  0  0  0  0  0  0  0  0  0  0
   -0.0961    0.3236    5.9113 C   0  0  0  0  0  0  0  0  0  0  0  0
   -0.0133    0.2142    4.5154 C   0  0  2  0  0  0  0  0  0  0  0  0
   -1.1904    0.2201    3.7239 C   0  0  0  0  0  0  0  0  0  0  0  0
   -2.4383    0.3400    4.3651 C   0  0  0  0  0  0  0  0  0  0  0  0
   -1.1521    0.0856    2.3476 N   0  0  0  0  0  0  0  0  0  0  0  0
    0.0000   -0.0000    1.7776 C   0  0  0  0  0  0  0  0  0  0  0  0
    1.1926   -0.0000    2.4624 N   0  0  0  0  0  0  0  0  0  0  0  0
    1.2971    0.0911    3.8583 C   0  0  0  0  0  0  0  0  0  0  0  0
    2.3827    0.0769    4.4047 O   0  0  0  0  0  0  0  0  0  0  0  0
    0.0000    0.0000    0.0000 S   0  0  0  0  0  0  0  0  0  0  0  0
   -3.2921    2.6469    7.5863 C   0  0  0  0  0  0  0  0  0  0  0  0
   -5.4849   -2.7037   10.3569 H   0  0  0  0  0  0  0  0  0  0  0  0
   -5.7612   -1.2930    8.2872 H   0  0  0  0  0  0  0  0  0  0  0  0
   -4.4148    0.8296   12.5884 H   0  0  0  0  0  0  0  0  0  0  0  0
   -5.7273    2.4189    8.2985 H   0  0  0  0  0  0  0  0  0  0  0  0
   -6.1513    0.9588    7.3609 H   0  0  0  0  0  0  0  0  0  0  0  0
   -1.3988    0.5395    7.6116 H   0  0  0  0  0  0  0  0  0  0  0  0
    0.8302    0.2955    6.4882 H   0  0  0  0  0  0  0  0  0  0  0  0
   -3.3433    0.3114    3.7579 H   0  0  0  0  0  0  0  0  0  0  0  0
    2.0711   -0.0353    1.9536 H   0  0  0  0  0  0  0  0  0  0  0  0
    1.8166   -1.2896   -0.5836 Au  0  0  0  0  0  0  0  0  0  0  0  0
   -2.5093    2.7504    6.8273 H   0  0  0  0  0  0  0  0  0  0  0  0
   -2.8176    2.5604    8.5784 H   0  0  0  0  0  0  0  0  0  0  0  0
   -3.8950    3.5693    7.5851 H   0  0  0  0  0  0  0  0  0  0  0  0
  2  7  1  0  0  0  0
  2  1  1  0  0  0  0
  3  2  2  0  0  0  0
  4  5  2  0  0  0  0
  4  3  1  0  0  0  0
  5  6  1  0  0  0  0
  6  8  1  0  0  0  0
  6  7  2  0  0  0  0
  7 28  1  0  0  0  0
  9 29  1  0  0  0  0
  9  5  1  0  0  0  0
 10 25  1  0  0  0  0
 10  9  1  0  0  0  0
 11 10  1  0  0  0  0
 12 11  2  0  0  0  0
 13 11  1  0  0  0  0
 13 14  1  0  0  0  0
 14 31  1  0  0  0  0
 15 32  1  0  0  0  0
 15 14  2  0  0  0  0
 16 17  1  1  0  0  0
 16 15  1  0  0  0  0
 17 18  1  0  0  0  0
 18 13  2  0  0  0  0
 19 17  2  0  0  0  0
 20 19  2  0  0  0  0
 20 21  1  0  0  0  0
 21 22  1  0  0  0  0
 22 23  2  0  0  0  0
 22 16  1  0  0  0  0
 24 20  1  0  0  0  0
 25 37  1  0  0  0  0
 26  3  1  0  0  0  0
 27  4  1  0  0  0  0
 30  9  1  0  0  0  0
 33 18  1  0  0  0  0
 34 21  1  0  0  0  0
 35 24  1  0  0  0  0
 36 25  1  0  0  0  0
 38 25  1  0  0  0  0
M  RAD  1  16   2
M  END
