009-318-404.xyz
 OpenBabel07262113403D
CN(C(=O)c1ccc2c(c1)nc([nH]c2=O)S)Cc1ccccc1F
 38 40  0  0  1  0  0  0  0  0999 V2000
   -4.4775    2.5554    5.1651 C   0  0  0  0  0  0  0  0  0  0  0  0
   -4.7566    1.4204    6.0248 N   0  0  0  0  0  0  0  0  0  0  0  0
   -3.8246    0.5118    6.4640 C   0  0  0  0  0  0  0  0  0  0  0  0
   -4.0473   -0.2823    7.3650 O   0  0  0  0  0  0  0  0  0  0  0  0
   -2.4941    0.4828    5.7585 C   0  0  0  0  0  0  0  0  0  0  0  0
   -1.3172    0.4330    6.5345 C   0  0  0  0  0  0  0  0  0  0  0  0
   -0.0818    0.3154    5.9158 C   0  0  0  0  0  0  0  0  0  0  0  0
   -0.0024    0.2145    4.5177 C   0  0  2  0  0  0  0  0  0  0  0  0
   -1.1807    0.2264    3.7292 C   0  0  0  0  0  0  0  0  0  0  0  0
   -2.4257    0.3677    4.3730 C   0  0  0  0  0  0  0  0  0  0  0  0
   -1.1498    0.0881    2.3526 N   0  0  0  0  0  0  0  0  0  0  0  0
   -0.0000    0.0000    1.7781 C   0  0  0  0  0  0  0  0  0  0  0  0
    1.1946    0.0000    2.4589 N   0  0  0  0  0  0  0  0  0  0  0  0
    1.3050    0.0915    3.8551 C   0  0  0  0  0  0  0  0  0  0  0  0
    2.3935    0.0772    4.3956 O   0  0  0  0  0  0  0  0  0  0  0  0
    0.0000    0.0000    0.0000 S   0  0  0  0  0  0  0  0  0  0  0  0
   -6.1349    1.2563    6.4644 C   0  0  0  0  0  0  0  0  0  0  0  0
   -7.0964    1.1293    5.3044 C   0  0  0  0  0  0  0  0  0  0  0  0
   -8.2039    1.9747    5.1634 C   0  0  0  0  0  0  0  0  0  0  0  0
   -9.0880    1.8481    4.0882 C   0  0  0  0  0  0  0  0  0  0  0  0
   -8.8669    0.8664    3.1195 C   0  0  0  0  0  0  0  0  0  0  0  0
   -7.7657    0.0130    3.2298 C   0  0  0  0  0  0  0  0  0  0  0  0
   -6.9082    0.1561    4.3149 C   0  0  0  0  0  0  0  0  0  0  0  0
   -5.8504   -0.6710    4.4092 F   0  0  0  0  0  0  0  0  0  0  0  0
   -4.9733    3.4520    5.5742 H   0  0  0  0  0  0  0  0  0  0  0  0
   -3.4005    2.7508    5.1219 H   0  0  0  0  0  0  0  0  0  0  0  0
   -4.8491    2.4071    4.1368 H   0  0  0  0  0  0  0  0  0  0  0  0
   -1.3993    0.4808    7.6215 H   0  0  0  0  0  0  0  0  0  0  0  0
    0.8469    0.2898    6.4887 H   0  0  0  0  0  0  0  0  0  0  0  0
   -3.3270    0.3576    3.7597 H   0  0  0  0  0  0  0  0  0  0  0  0
    2.0713   -0.0350    1.9469 H   0  0  0  0  0  0  0  0  0  0  0  0
    1.7625   -1.3680   -0.5728 Au  0  0  0  0  0  0  0  0  0  0  0  0
   -6.1520    0.3587    7.0981 H   0  0  0  0  0  0  0  0  0  0  0  0
   -6.4409    2.1127    7.0907 H   0  0  0  0  0  0  0  0  0  0  0  0
   -8.3702    2.7486    5.9177 H   0  0  0  0  0  0  0  0  0  0  0  0
   -9.9452    2.5194    4.0052 H   0  0  0  0  0  0  0  0  0  0  0  0
   -9.5489    0.7620    2.2728 H   0  0  0  0  0  0  0  0  0  0  0  0
   -7.5602   -0.7649    2.4924 H   0  0  0  0  0  0  0  0  0  0  0  0
  1 25  1  0  0  0  0
  1  2  1  0  0  0  0
  2  3  1  0  0  0  0
  2 17  1  0  0  0  0
  3  4  2  0  0  0  0
  5  3  1  0  0  0  0
  5  6  1  0  0  0  0
  6 28  1  0  0  0  0
  7 29  1  0  0  0  0
  7  6  2  0  0  0  0
  8  9  1  1  0  0  0
  8  7  1  0  0  0  0
  9 10  1  0  0  0  0
 10  5  2  0  0  0  0
 11  9  2  0  0  0  0
 12 11  2  0  0  0  0
 12 13  1  0  0  0  0
 13 14  1  0  0  0  0
 14 15  2  0  0  0  0
 14  8  1  0  0  0  0
 16 12  1  0  0  0  0
 17 34  1  0  0  0  0
 17 33  1  0  0  0  0
 18 17  1  0  0  0  0
 19 18  1  0  0  0  0
 19 35  1  0  0  0  0
 20 19  2  0  0  0  0
 21 22  2  0  0  0  0
 21 20  1  0  0  0  0
 22 23  1  0  0  0  0
 23 24  1  0  0  0  0
 23 18  2  0  0  0  0
 26  1  1  0  0  0  0
 27  1  1  0  0  0  0
 30 10  1  0  0  0  0
 31 13  1  0  0  0  0
 32 16  1  0  0  0  0
 36 20  1  0  0  0  0
 37 21  1  0  0  0  0
 38 22  1  0  0  0  0
M  RAD  1   8   2
M  END
