009-340-653.xyz
 OpenBabel07262113413D
COc1ccc(cc1F)NC(=O)c1ccc2c(c1)nc([nH]c2=O)S
 36 38  0  0  1  0  0  0  0  0999 V2000
   -8.4666    0.6659   11.9330 C   0  0  0  0  0  0  0  0  0  0  0  0
   -7.1277    1.0770   12.0849 O   0  0  0  0  0  0  0  0  0  0  0  0
   -6.2772    0.8941   11.0488 C   0  0  0  0  0  0  0  0  0  0  0  0
   -6.5969    0.3259    9.8112 C   0  0  0  0  0  0  0  0  0  0  0  0
   -5.6404    0.1817    8.7991 C   0  0  0  0  0  0  0  0  0  0  0  0
   -4.3245    0.6101    9.0139 C   0  0  0  0  0  0  0  0  0  0  0  0
   -3.9888    1.1834   10.2559 C   0  0  0  0  0  0  0  0  0  0  0  0
   -4.9483    1.3190   11.2426 C   0  0  0  0  0  0  0  0  0  0  0  0
   -4.6129    1.8662   12.4164 F   0  0  0  0  0  0  0  0  0  0  0  0
   -3.2985    0.4974    8.0577 N   0  0  0  0  0  0  0  0  0  0  0  0
   -3.3728    0.0084    6.7767 C   0  0  0  0  0  0  0  0  0  0  0  0
   -4.4030   -0.3862    6.2550 O   0  0  0  0  0  0  0  0  0  0  0  0
   -2.0643    0.0109    6.0267 C   0  0  0  0  0  0  0  0  0  0  0  0
   -0.8029   -0.0072    6.6648 C   0  0  0  0  0  0  0  0  0  0  0  0
    0.3593   -0.0124    5.9079 C   0  0  0  0  0  0  0  0  0  0  0  0
    0.2871   -0.0018    4.5070 C   0  0  2  0  0  0  0  0  0  0  0  0
   -0.9704   -0.0007    3.8515 C   0  0  0  0  0  0  0  0  0  0  0  0
   -2.1391   -0.0025    4.6369 C   0  0  0  0  0  0  0  0  0  0  0  0
   -1.0862    0.0002    2.4741 N   0  0  0  0  0  0  0  0  0  0  0  0
    0.0000    0.0000    1.7688 C   0  0  0  0  0  0  0  0  0  0  0  0
    1.2598   -0.0000    2.3243 N   0  0  0  0  0  0  0  0  0  0  0  0
    1.5184   -0.0020    3.7036 C   0  0  0  0  0  0  0  0  0  0  0  0
    2.6582   -0.0035    4.1242 O   0  0  0  0  0  0  0  0  0  0  0  0
    0.0000    0.0000    0.0000 S   0  0  0  0  0  0  0  0  0  0  0  0
   -8.5425   -0.4204   11.7451 H   0  0  0  0  0  0  0  0  0  0  0  0
   -8.9690    1.2038   11.1087 H   0  0  0  0  0  0  0  0  0  0  0  0
   -8.9754    0.9021   12.8766 H   0  0  0  0  0  0  0  0  0  0  0  0
   -7.6129   -0.0162    9.6160 H   0  0  0  0  0  0  0  0  0  0  0  0
   -5.9085   -0.2570    7.8424 H   0  0  0  0  0  0  0  0  0  0  0  0
   -2.9758    1.5310   10.4713 H   0  0  0  0  0  0  0  0  0  0  0  0
   -2.4084    0.8898    8.3359 H   0  0  0  0  0  0  0  0  0  0  0  0
   -0.7281   -0.0557    7.7533 H   0  0  0  0  0  0  0  0  0  0  0  0
    1.3461   -0.0345    6.3738 H   0  0  0  0  0  0  0  0  0  0  0  0
   -3.1139   -0.0149    4.1500 H   0  0  0  0  0  0  0  0  0  0  0  0
    2.0824   -0.0013    1.7268 H   0  0  0  0  0  0  0  0  0  0  0  0
   -2.2938   -0.0209   -0.3128 Au  0  0  0  0  0  0  0  0  0  0  0  0
  1  2  1  0  0  0  0
  1 27  1  0  0  0  0
  3  8  1  0  0  0  0
  3  2  1  0  0  0  0
  4  3  2  0  0  0  0
  5  6  2  0  0  0  0
  5  4  1  0  0  0  0
  6  7  1  0  0  0  0
  7 30  1  0  0  0  0
  7  8  2  0  0  0  0
  8  9  1  0  0  0  0
 10 31  1  0  0  0  0
 10  6  1  0  0  0  0
 11 10  1  0  0  0  0
 12 11  2  0  0  0  0
 13 14  1  0  0  0  0
 13 11  1  0  0  0  0
 14 32  1  0  0  0  0
 15 33  1  0  0  0  0
 15 14  2  0  0  0  0
 16 22  1  6  0  0  0
 16 15  1  0  0  0  0
 17 16  1  0  0  0  0
 17 18  1  0  0  0  0
 18 13  2  0  0  0  0
 19 17  2  0  0  0  0
 20 21  1  0  0  0  0
 20 19  2  0  0  0  0
 21 22  1  0  0  0  0
 22 23  2  0  0  0  0
 24 20  1  0  0  0  0
 25  1  1  0  0  0  0
 26  1  1  0  0  0  0
 28  4  1  0  0  0  0
 29  5  1  0  0  0  0
 34 18  1  0  0  0  0
 35 21  1  0  0  0  0
 36 24  1  0  0  0  0
M  RAD  1  16   2
M  END
