012-655-220.xyz
 OpenBabel07262113413D
Sc1ccc(cc1N)S(=O)(=O)C
 21 21  0  0  0  0  0  0  0  0999 V2000
    0.0000    0.0000    0.0000 S   0  0  0  0  0  0  0  0  0  0  0  0
   -0.0000    0.0000    1.7677 C   0  0  0  0  0  0  0  0  0  0  0  0
   -1.2209   -0.0794    2.4605 C   0  0  0  0  0  0  0  0  0  0  0  0
   -1.2616   -0.1787    3.8470 C   0  0  0  0  0  0  0  0  0  0  0  0
   -0.0443   -0.1668    4.5381 C   0  0  0  0  0  0  0  0  0  0  0  0
    1.1828   -0.0860    3.8949 C   0  0  0  0  0  0  0  0  0  0  0  0
    1.2320    0.0000    2.4884 C   0  0  0  0  0  0  0  0  0  0  0  0
    2.4229    0.1336    1.8290 N   0  0  0  0  0  0  0  0  0  0  0  0
   -0.0575   -0.2630    6.3348 S   0  0  0  0  0  0  0  0  0  0  0  0
    1.2747   -0.6985    6.7783 O   0  0  0  0  0  0  0  0  0  0  0  0
   -1.2718   -0.9799    6.7448 O   0  0  0  0  0  0  0  0  0  0  0  0
   -0.2528    1.4577    6.8419 C   0  0  0  0  0  0  0  0  0  0  0  0
    0.7225    2.1480   -0.5006 Au  0  0  0  0  0  0  0  0  0  0  0  0
   -2.1446   -0.0764    1.8787 H   0  0  0  0  0  0  0  0  0  0  0  0
   -2.2017   -0.2803    4.3899 H   0  0  0  0  0  0  0  0  0  0  0  0
    2.1005   -0.1112    4.4859 H   0  0  0  0  0  0  0  0  0  0  0  0
    2.4128   -0.0750    0.8348 H   0  0  0  0  0  0  0  0  0  0  0  0
    3.2743   -0.0858    2.3305 H   0  0  0  0  0  0  0  0  0  0  0  0
   -1.2013    1.8426    6.4467 H   0  0  0  0  0  0  0  0  0  0  0  0
   -0.2689    1.4338    7.9405 H   0  0  0  0  0  0  0  0  0  0  0  0
    0.6041    2.0372    6.4764 H   0  0  0  0  0  0  0  0  0  0  0  0
  1  2  1  0  0  0  0
  2  3  2  0  0  0  0
  2  7  1  0  0  0  0
  3  4  1  0  0  0  0
  4 15  1  0  0  0  0
  4  5  2  0  0  0  0
  5  9  1  0  0  0  0
  6 16  1  0  0  0  0
  6  5  1  0  0  0  0
  7  6  2  0  0  0  0
  8 18  1  0  0  0  0
  8  7  1  0  0  0  0
  9 11  2  0  0  0  0
  9 10  2  0  0  0  0
  9 12  1  0  0  0  0
 12 20  1  0  0  0  0
 13  1  1  0  0  0  0
 14  3  1  0  0  0  0
 17  8  1  0  0  0  0
 19 12  1  0  0  0  0
 21 12  1  0  0  0  0
M  END
