013-879-940.xyz
 OpenBabel07262113413D
Nc1ccc(c(c1)S)C
 18 18  0  0  0  0  0  0  0  0999 V2000
   -2.5536   -0.0568    1.8647 C   0  0  0  0  0  0  0  0  0  0  0  0
   -1.2038   -0.0875    2.5223 C   0  0  0  0  0  0  0  0  0  0  0  0
   -1.0815   -0.1765    3.9153 C   0  0  0  0  0  0  0  0  0  0  0  0
    0.1541   -0.1893    4.5593 C   0  0  0  0  0  0  0  0  0  0  0  0
    1.3493   -0.1029    3.8200 C   0  0  0  0  0  0  0  0  0  0  0  0
    2.5842   -0.0633    4.4533 N   0  0  0  0  0  0  0  0  0  0  0  0
    1.2473    0.0000    2.4237 C   0  0  0  0  0  0  0  0  0  0  0  0
    0.0000   -0.0000    1.7808 C   0  0  0  0  0  0  0  0  0  0  0  0
    0.0000    0.0000    0.0000 S   0  0  0  0  0  0  0  0  0  0  0  0
   -3.3519   -0.2634    2.5922 H   0  0  0  0  0  0  0  0  0  0  0  0
   -2.7526    0.9307    1.4091 H   0  0  0  0  0  0  0  0  0  0  0  0
   -2.6184   -0.7867    1.0435 H   0  0  0  0  0  0  0  0  0  0  0  0
   -1.9903   -0.2453    4.5196 H   0  0  0  0  0  0  0  0  0  0  0  0
    0.1983   -0.2627    5.6493 H   0  0  0  0  0  0  0  0  0  0  0  0
    2.6230   -0.4646    5.3829 H   0  0  0  0  0  0  0  0  0  0  0  0
    3.3858   -0.3097    3.8845 H   0  0  0  0  0  0  0  0  0  0  0  0
    2.1500    0.0833    1.8146 H   0  0  0  0  0  0  0  0  0  0  0  0
   -0.7301    2.1235   -0.5334 Au  0  0  0  0  0  0  0  0  0  0  0  0
  1  2  1  0  0  0  0
  1 10  1  0  0  0  0
  2  3  2  0  0  0  0
  3 13  1  0  0  0  0
  3  4  1  0  0  0  0
  4 14  1  0  0  0  0
  5  6  1  0  0  0  0
  5  4  2  0  0  0  0
  6 15  1  0  0  0  0
  7  5  1  0  0  0  0
  8  7  2  0  0  0  0
  8  2  1  0  0  0  0
  9  8  1  0  0  0  0
 11  1  1  0  0  0  0
 12  1  1  0  0  0  0
 16  6  1  0  0  0  0
 17  7  1  0  0  0  0
 18  9  1  0  0  0  0
M  END
