016-586-362.xyz
 OpenBabel07262113413D
Cc1ccc(cc1)c1nnc(n1/N=C/c1ccc(c(c1O)O)O)S
 38 40  0  0  0  0  0  0  0  0999 V2000
   -3.4954    0.2313    8.9031 C   0  0  0  0  0  0  0  0  0  0  0  0
   -2.7891    0.1881    7.5731 C   0  0  0  0  0  0  0  0  0  0  0  0
   -1.3839    0.1794    7.5087 C   0  0  0  0  0  0  0  0  0  0  0  0
   -0.7180    0.1356    6.2911 C   0  0  0  0  0  0  0  0  0  0  0  0
   -1.4388    0.0982    5.0785 C   0  0  0  0  0  0  0  0  0  0  0  0
   -2.8427    0.1054    5.1343 C   0  0  0  0  0  0  0  0  0  0  0  0
   -3.4982    0.1512    6.3662 C   0  0  0  0  0  0  0  0  0  0  0  0
   -0.6644    0.0546    3.8374 C   0  0  0  0  0  0  0  0  0  0  0  0
    0.6666    0.0078    3.7991 N   0  0  0  0  0  0  0  0  0  0  0  0
    1.0712    0.0000    2.5149 N   0  0  0  0  0  0  0  0  0  0  0  0
   -0.0000   -0.0000    1.7371 C   0  0  0  0  0  0  0  0  0  0  0  0
    0.0000    0.0000    0.0000 S   0  0  0  0  0  0  0  0  0  0  0  0
   -1.1381    0.0202    2.5484 N   0  0  0  0  0  0  0  0  0  0  0  0
   -2.4443    0.2294    2.1649 N   0  0  0  0  0  0  0  0  0  0  0  0
   -2.8954   -0.5643    1.2564 C   0  0  0  0  0  0  0  0  0  0  0  0
   -4.2264   -0.3840    0.7004 C   0  0  0  0  0  0  0  0  0  0  0  0
   -5.0346    0.7209    1.0362 C   0  0  0  0  0  0  0  0  0  0  0  0
   -6.3031    0.8772    0.4934 C   0  0  0  0  0  0  0  0  0  0  0  0
   -6.7902   -0.0793   -0.4109 C   0  0  0  0  0  0  0  0  0  0  0  0
   -8.0131   -0.0294   -1.0086 O   0  0  0  0  0  0  0  0  0  0  0  0
   -6.0047   -1.1801   -0.7619 C   0  0  0  0  0  0  0  0  0  0  0  0
   -6.4317   -2.1353   -1.6366 O   0  0  0  0  0  0  0  0  0  0  0  0
   -4.7259   -1.3390   -0.2114 C   0  0  0  0  0  0  0  0  0  0  0  0
   -3.9835   -2.4106   -0.5576 O   0  0  0  0  0  0  0  0  0  0  0  0
   -4.5881    0.2538    8.7814 H   0  0  0  0  0  0  0  0  0  0  0  0
   -3.1995    1.1217    9.4824 H   0  0  0  0  0  0  0  0  0  0  0  0
   -3.2411   -0.6487    9.5174 H   0  0  0  0  0  0  0  0  0  0  0  0
   -0.8039    0.2078    8.4355 H   0  0  0  0  0  0  0  0  0  0  0  0
    0.3715    0.1295    6.2453 H   0  0  0  0  0  0  0  0  0  0  0  0
   -3.4221    0.0821    4.2137 H   0  0  0  0  0  0  0  0  0  0  0  0
   -4.5913    0.1559    6.3866 H   0  0  0  0  0  0  0  0  0  0  0  0
   -0.6359    2.1803   -0.4719 Au  0  0  0  0  0  0  0  0  0  0  0  0
   -2.3020   -1.4022    0.8722 H   0  0  0  0  0  0  0  0  0  0  0  0
   -4.6308    1.4579    1.7311 H   0  0  0  0  0  0  0  0  0  0  0  0
   -6.9226    1.7385    0.7565 H   0  0  0  0  0  0  0  0  0  0  0  0
   -8.4996    0.7524   -0.7177 H   0  0  0  0  0  0  0  0  0  0  0  0
   -7.3218   -1.9010   -1.9390 H   0  0  0  0  0  0  0  0  0  0  0  0
   -4.4902   -2.9353   -1.1977 H   0  0  0  0  0  0  0  0  0  0  0  0
  1 26  1  0  0  0  0
  1 27  1  0  0  0  0
  2  1  1  0  0  0  0
  3  2  1  0  0  0  0
  3 28  1  0  0  0  0
  4  3  2  0  0  0  0
  5  6  2  0  0  0  0
  5  4  1  0  0  0  0
  6  7  1  0  0  0  0
  7 31  1  0  0  0  0
  7  2  2  0  0  0  0
  8  5  1  0  0  0  0
  9  8  2  0  0  0  0
 10  9  1  0  0  0  0
 11 10  2  0  0  0  0
 11 13  1  0  0  0  0
 12 11  1  0  0  0  0
 13  8  1  0  0  0  0
 14 13  1  0  0  0  0
 15 14  2  0  0  0  0
 16 17  1  0  0  0  0
 16 15  1  0  0  0  0
 17 34  1  0  0  0  0
 18 35  1  0  0  0  0
 18 17  2  0  0  0  0
 19 18  1  0  0  0  0
 20 36  1  0  0  0  0
 20 19  1  0  0  0  0
 21 19  2  0  0  0  0
 21 23  1  0  0  0  0
 22 21  1  0  0  0  0
 23 16  2  0  0  0  0
 24 23  1  0  0  0  0
 25  1  1  0  0  0  0
 29  4  1  0  0  0  0
 30  6  1  0  0  0  0
 32 12  1  0  0  0  0
 33 15  1  0  0  0  0
 37 22  1  0  0  0  0
 38 24  1  0  0  0  0
M  END
