019-672-070.xyz
 OpenBabel07262113413D
O=C(N1CCCC1c1ccc(c(c1)C)C)c1ccc2c(c1)nc([nH]c2=O)S
 48 51  0  0  1  0  0  0  0  0999 V2000
    4.2122   -0.8691    6.5068 O   0  0  0  0  0  0  0  0  0  0  0  0
    3.3485   -0.0587    6.8077 C   0  0  0  0  0  0  0  0  0  0  0  0
    3.4926    0.8205    7.8481 N   0  0  0  0  0  0  0  0  0  0  0  0
    2.7333    2.0700    8.0279 C   0  0  0  0  0  0  0  0  0  0  0  0
    3.5267    2.8275    9.1009 C   0  0  0  0  0  0  0  0  0  0  0  0
    4.9572    2.3152    8.9153 C   0  0  0  0  0  0  0  0  0  0  0  0
    4.7478    0.8177    8.6111 C   0  0  1  0  0  0  0  0  0  0  0  0
    4.6781   -0.0380    9.8656 C   0  0  0  0  0  0  0  0  0  0  0  0
    3.4707   -0.4878   10.4022 C   0  0  0  0  0  0  0  0  0  0  0  0
    3.4607   -1.2369   11.5819 C   0  0  0  0  0  0  0  0  0  0  0  0
    4.6429   -1.5600   12.2556 C   0  0  0  0  0  0  0  0  0  0  0  0
    5.8725   -1.1146   11.7159 C   0  0  0  0  0  0  0  0  0  0  0  0
    5.8648   -0.3661   10.5353 C   0  0  0  0  0  0  0  0  0  0  0  0
    7.1724   -1.4516   12.3992 C   0  0  0  0  0  0  0  0  0  0  0  0
    4.6110   -2.3733   13.5232 C   0  0  0  0  0  0  0  0  0  0  0  0
    2.0593    0.0078    6.0291 C   0  0  0  0  0  0  0  0  0  0  0  0
    0.7999   -0.0089    6.6670 C   0  0  0  0  0  0  0  0  0  0  0  0
   -0.3619   -0.0209    5.9099 C   0  0  0  0  0  0  0  0  0  0  0  0
   -0.2893   -0.0051    4.5085 C   0  0  1  0  0  0  0  0  0  0  0  0
    0.9687   -0.0027    3.8539 C   0  0  0  0  0  0  0  0  0  0  0  0
    2.1373   -0.0113    4.6401 C   0  0  0  0  0  0  0  0  0  0  0  0
    1.0854    0.0000    2.4755 N   0  0  0  0  0  0  0  0  0  0  0  0
   -0.0000   -0.0000    1.7704 C   0  0  0  0  0  0  0  0  0  0  0  0
   -1.2599    0.0009    2.3248 N   0  0  0  0  0  0  0  0  0  0  0  0
   -1.5191   -0.0019    3.7047 C   0  0  0  0  0  0  0  0  0  0  0  0
   -2.6603   -0.0016    4.1224 O   0  0  0  0  0  0  0  0  0  0  0  0
    0.0000    0.0000    0.0000 S   0  0  0  0  0  0  0  0  0  0  0  0
    1.6966    1.8852    8.3419 H   0  0  0  0  0  0  0  0  0  0  0  0
    2.6923    2.6315    7.0788 H   0  0  0  0  0  0  0  0  0  0  0  0
    3.4307    3.9177    8.9960 H   0  0  0  0  0  0  0  0  0  0  0  0
    3.1600    2.5521   10.1020 H   0  0  0  0  0  0  0  0  0  0  0  0
    5.4300    2.8020    8.0463 H   0  0  0  0  0  0  0  0  0  0  0  0
    5.5988    2.4788    9.7918 H   0  0  0  0  0  0  0  0  0  0  0  0
    5.5407    0.4160    7.9648 H   0  0  0  0  0  0  0  0  0  0  0  0
    2.5341   -0.2653    9.8885 H   0  0  0  0  0  0  0  0  0  0  0  0
    2.5065   -1.5844   11.9877 H   0  0  0  0  0  0  0  0  0  0  0  0
    6.8199   -0.0321   10.1177 H   0  0  0  0  0  0  0  0  0  0  0  0
    7.3190   -2.5424   12.4736 H   0  0  0  0  0  0  0  0  0  0  0  0
    7.2011   -1.0618   13.4308 H   0  0  0  0  0  0  0  0  0  0  0  0
    8.0315   -1.0329   11.8559 H   0  0  0  0  0  0  0  0  0  0  0  0
    5.0642   -1.8277   14.3682 H   0  0  0  0  0  0  0  0  0  0  0  0
    3.5809   -2.6346   13.8047 H   0  0  0  0  0  0  0  0  0  0  0  0
    5.1800   -3.3125   13.4171 H   0  0  0  0  0  0  0  0  0  0  0  0
    0.7430   -0.0395    7.7561 H   0  0  0  0  0  0  0  0  0  0  0  0
   -1.3493   -0.0460    6.3746 H   0  0  0  0  0  0  0  0  0  0  0  0
    3.1075   -0.0404    4.1435 H   0  0  0  0  0  0  0  0  0  0  0  0
   -2.0825   -0.0016    1.7273 H   0  0  0  0  0  0  0  0  0  0  0  0
    2.2930   -0.0538   -0.3106 Au  0  0  0  0  0  0  0  0  0  0  0  0
  1  2  2  0  0  0  0
  2  3  1  0  0  0  0
  3  4  1  0  0  0  0
  3  7  1  0  0  0  0
  4 28  1  0  0  0  0
  4  5  1  0  0  0  0
  5 31  1  0  0  0  0
  6  5  1  0  0  0  0
  6 33  1  0  0  0  0
  7 34  1  6  0  0  0
  7  6  1  0  0  0  0
  7  8  1  0  0  0  0
  8  9  2  0  0  0  0
  8 13  1  0  0  0  0
  9 10  1  0  0  0  0
 10 36  1  0  0  0  0
 10 11  2  0  0  0  0
 11 15  1  0  0  0  0
 12 11  1  0  0  0  0
 12 14  1  0  0  0  0
 13 12  2  0  0  0  0
 14 38  1  0  0  0  0
 14 39  1  0  0  0  0
 15 42  1  0  0  0  0
 15 41  1  0  0  0  0
 16 17  1  0  0  0  0
 16  2  1  0  0  0  0
 17 44  1  0  0  0  0
 18 45  1  0  0  0  0
 18 17  2  0  0  0  0
 19 25  1  6  0  0  0
 19 18  1  0  0  0  0
 20 19  1  0  0  0  0
 20 21  1  0  0  0  0
 21 16  2  0  0  0  0
 22 20  2  0  0  0  0
 23 24  1  0  0  0  0
 23 22  2  0  0  0  0
 24 25  1  0  0  0  0
 25 26  2  0  0  0  0
 27 23  1  0  0  0  0
 29  4  1  0  0  0  0
 30  5  1  0  0  0  0
 32  6  1  0  0  0  0
 35  9  1  0  0  0  0
 37 13  1  0  0  0  0
 40 14  1  0  0  0  0
 43 15  1  0  0  0  0
 46 21  1  0  0  0  0
 47 24  1  0  0  0  0
 48 27  1  0  0  0  0
M  RAD  1  19   2
M  END
