019-652-036.xyz
 OpenBabel07262113413D
CN(C(=O)c1ccc2c(c1)nc([nH]c2=O)S)Cc1ccc(c(c1)F)F
 38 40  0  0  1  0  0  0  0  0999 V2000
   -4.7660   -0.5696    8.6560 C   0  0  0  0  0  0  0  0  0  0  0  0
   -3.5185   -0.7000    7.9172 N   0  0  0  0  0  0  0  0  0  0  0  0
   -3.3672    0.0703    6.7826 C   0  0  0  0  0  0  0  0  0  0  0  0
   -4.2515    0.8152    6.3906 O   0  0  0  0  0  0  0  0  0  0  0  0
   -2.0614   -0.0077    6.0295 C   0  0  0  0  0  0  0  0  0  0  0  0
   -0.8006    0.0092    6.6678 C   0  0  0  0  0  0  0  0  0  0  0  0
    0.3606    0.0193    5.9090 C   0  0  0  0  0  0  0  0  0  0  0  0
    0.2892    0.0053    4.5080 C   0  0  1  0  0  0  0  0  0  0  0  0
   -0.9684    0.0020    3.8532 C   0  0  0  0  0  0  0  0  0  0  0  0
   -2.1366    0.0091    4.6394 C   0  0  0  0  0  0  0  0  0  0  0  0
   -1.0856   -0.0009    2.4752 N   0  0  0  0  0  0  0  0  0  0  0  0
    0.0000    0.0000    1.7697 C   0  0  0  0  0  0  0  0  0  0  0  0
    1.2600    0.0000    2.3243 N   0  0  0  0  0  0  0  0  0  0  0  0
    1.5196    0.0026    3.7039 C   0  0  0  0  0  0  0  0  0  0  0  0
    2.6601    0.0022    4.1224 O   0  0  0  0  0  0  0  0  0  0  0  0
    0.0000    0.0000    0.0000 S   0  0  0  0  0  0  0  0  0  0  0  0
   -2.7267   -1.8765    8.2224 C   0  0  0  0  0  0  0  0  0  0  0  0
   -1.9537   -1.7975    9.5273 C   0  0  0  0  0  0  0  0  0  0  0  0
   -1.4246   -2.9648   10.0940 C   0  0  0  0  0  0  0  0  0  0  0  0
   -0.6731   -2.9126   11.2694 C   0  0  0  0  0  0  0  0  0  0  0  0
   -0.4524   -1.6885   11.8927 C   0  0  0  0  0  0  0  0  0  0  0  0
   -0.9836   -0.5208   11.3392 C   0  0  0  0  0  0  0  0  0  0  0  0
   -1.7270   -0.5718   10.1648 C   0  0  0  0  0  0  0  0  0  0  0  0
   -0.7704    0.6464   11.9510 F   0  0  0  0  0  0  0  0  0  0  0  0
    0.2576   -1.6160   13.0210 F   0  0  0  0  0  0  0  0  0  0  0  0
   -5.1655    0.4410    8.5167 H   0  0  0  0  0  0  0  0  0  0  0  0
   -4.5825   -0.7565    9.7241 H   0  0  0  0  0  0  0  0  0  0  0  0
   -5.5221   -1.2912    8.2968 H   0  0  0  0  0  0  0  0  0  0  0  0
   -0.7340    0.0305    7.7554 H   0  0  0  0  0  0  0  0  0  0  0  0
    1.3470    0.0407    6.3759 H   0  0  0  0  0  0  0  0  0  0  0  0
   -3.1068    0.0364    4.1434 H   0  0  0  0  0  0  0  0  0  0  0  0
    2.0824    0.0033    1.7265 H   0  0  0  0  0  0  0  0  0  0  0  0
   -2.2926    0.0543   -0.3138 Au  0  0  0  0  0  0  0  0  0  0  0  0
   -3.3946   -2.7569    8.2591 H   0  0  0  0  0  0  0  0  0  0  0  0
   -2.0269   -2.0641    7.3963 H   0  0  0  0  0  0  0  0  0  0  0  0
   -1.5984   -3.9299    9.6116 H   0  0  0  0  0  0  0  0  0  0  0  0
   -0.2523   -3.8124   11.7220 H   0  0  0  0  0  0  0  0  0  0  0  0
   -2.1321    0.3569    9.7599 H   0  0  0  0  0  0  0  0  0  0  0  0
  1 27  1  0  0  0  0
  2 17  1  0  0  0  0
  2  1  1  0  0  0  0
  3  2  1  0  0  0  0
  4  3  2  0  0  0  0
  5  6  1  0  0  0  0
  5  3  1  0  0  0  0
  6 29  1  0  0  0  0
  7 30  1  0  0  0  0
  7  6  2  0  0  0  0
  8 14  1  6  0  0  0
  8  7  1  0  0  0  0
  9  8  1  0  0  0  0
  9 10  1  0  0  0  0
 10  5  2  0  0  0  0
 11  9  2  0  0  0  0
 12 13  1  0  0  0  0
 12 11  2  0  0  0  0
 13 14  1  0  0  0  0
 14 15  2  0  0  0  0
 16 12  1  0  0  0  0
 17 34  1  0  0  0  0
 17 18  1  0  0  0  0
 18 19  2  0  0  0  0
 18 23  1  0  0  0  0
 19 20  1  0  0  0  0
 20 37  1  0  0  0  0
 20 21  2  0  0  0  0
 21 25  1  0  0  0  0
 22 21  1  0  0  0  0
 22 24  1  0  0  0  0
 23 22  2  0  0  0  0
 26  1  1  0  0  0  0
 28  1  1  0  0  0  0
 31 10  1  0  0  0  0
 32 13  1  0  0  0  0
 33 16  1  0  0  0  0
 35 17  1  0  0  0  0
 36 19  1  0  0  0  0
 38 23  1  0  0  0  0
M  RAD  1   8   2
M  END
