019-672-040.xyz
 OpenBabel07262113413D
Clc1ccc(c(c1)Cl)C(N(C(=O)c1ccc2c(c1)nc([nH]c2=O)S)C)C
 41 43  0  0  1  0  0  0  0  0999 V2000
  -10.1267    1.4864    3.2718 Cl  0  0  0  0  0  0  0  0  0  0  0  0
   -8.8459    1.1931    4.4194 C   0  0  0  0  0  0  0  0  0  0  0  0
   -8.7439    1.9797    5.5669 C   0  0  0  0  0  0  0  0  0  0  0  0
   -7.7100    1.7292    6.4700 C   0  0  0  0  0  0  0  0  0  0  0  0
   -6.7675    0.7118    6.2694 C   0  0  0  0  0  0  0  0  0  0  0  0
   -6.9093   -0.0594    5.1002 C   0  0  0  0  0  0  0  0  0  0  0  0
   -7.9316    0.1665    4.1774 C   0  0  0  0  0  0  0  0  0  0  0  0
   -5.7899   -1.3618    4.7568 Cl  0  0  0  0  0  0  0  0  0  0  0  0
   -5.6289    0.4523    7.2430 C   0  0  1  0  0  0  0  0  0  0  0  0
   -4.3411    0.7421    6.5920 N   0  0  0  0  0  0  0  0  0  0  0  0
   -3.3014   -0.1083    6.8716 C   0  0  0  0  0  0  0  0  0  0  0  0
   -3.3741   -0.9596    7.7470 O   0  0  0  0  0  0  0  0  0  0  0  0
   -2.0595   -0.0029    6.0275 C   0  0  0  0  0  0  0  0  0  0  0  0
   -0.8034   -0.0470    6.6687 C   0  0  0  0  0  0  0  0  0  0  0  0
    0.3586   -0.0339    5.9134 C   0  0  0  0  0  0  0  0  0  0  0  0
    0.2880   -0.0094    4.5106 C   0  0  2  0  0  0  0  0  0  0  0  0
   -0.9678   -0.0003    3.8538 C   0  0  0  0  0  0  0  0  0  0  0  0
   -2.1385    0.0097    4.6379 C   0  0  0  0  0  0  0  0  0  0  0  0
   -1.0858    0.0014    2.4755 N   0  0  0  0  0  0  0  0  0  0  0  0
   -0.0000   -0.0000    1.7706 C   0  0  0  0  0  0  0  0  0  0  0  0
    1.2589   -0.0000    2.3258 N   0  0  0  0  0  0  0  0  0  0  0  0
    1.5179   -0.0045    3.7068 C   0  0  0  0  0  0  0  0  0  0  0  0
    2.6592   -0.0049    4.1234 O   0  0  0  0  0  0  0  0  0  0  0  0
    0.0000    0.0000    0.0000 S   0  0  0  0  0  0  0  0  0  0  0  0
   -4.2267    1.9640    5.8159 C   0  0  0  0  0  0  0  0  0  0  0  0
   -5.7437    1.1694    8.5875 C   0  0  0  0  0  0  0  0  0  0  0  0
   -9.4646    2.7777    5.7475 H   0  0  0  0  0  0  0  0  0  0  0  0
   -7.6376    2.3521    7.3619 H   0  0  0  0  0  0  0  0  0  0  0  0
   -8.0136   -0.4533    3.2853 H   0  0  0  0  0  0  0  0  0  0  0  0
   -5.6012   -0.6273    7.4483 H   0  0  0  0  0  0  0  0  0  0  0  0
   -0.7676   -0.0980    7.7579 H   0  0  0  0  0  0  0  0  0  0  0  0
    1.3458   -0.0516    6.3788 H   0  0  0  0  0  0  0  0  0  0  0  0
   -3.1012    0.0019    4.1268 H   0  0  0  0  0  0  0  0  0  0  0  0
    2.0822   -0.0029    1.7293 H   0  0  0  0  0  0  0  0  0  0  0  0
   -2.2923   -0.0523   -0.3144 Au  0  0  0  0  0  0  0  0  0  0  0  0
   -4.6631    1.8667    4.8076 H   0  0  0  0  0  0  0  0  0  0  0  0
   -3.1751    2.2536    5.7138 H   0  0  0  0  0  0  0  0  0  0  0  0
   -4.7555    2.7812    6.3313 H   0  0  0  0  0  0  0  0  0  0  0  0
   -4.9256    0.8241    9.2340 H   0  0  0  0  0  0  0  0  0  0  0  0
   -5.6674    2.2635    8.4859 H   0  0  0  0  0  0  0  0  0  0  0  0
   -6.6978    0.9347    9.0830 H   0  0  0  0  0  0  0  0  0  0  0  0
  1  2  1  0  0  0  0
  2  3  1  0  0  0  0
  3 27  1  0  0  0  0
  3  4  2  0  0  0  0
  4 28  1  0  0  0  0
  5  4  1  0  0  0  0
  5  9  1  0  0  0  0
  6  5  2  0  0  0  0
  7  2  2  0  0  0  0
  7  6  1  0  0  0  0
  8  6  1  0  0  0  0
  9 30  1  1  0  0  0
  9 26  1  0  0  0  0
 10 11  1  0  0  0  0
 10  9  1  0  0  0  0
 11 12  2  0  0  0  0
 13 14  1  0  0  0  0
 13 11  1  0  0  0  0
 14 31  1  0  0  0  0
 15 32  1  0  0  0  0
 15 14  2  0  0  0  0
 16 22  1  6  0  0  0
 16 15  1  0  0  0  0
 17 16  1  0  0  0  0
 17 18  1  0  0  0  0
 18 13  2  0  0  0  0
 19 17  2  0  0  0  0
 20 21  1  0  0  0  0
 20 19  2  0  0  0  0
 21 22  1  0  0  0  0
 22 23  2  0  0  0  0
 24 20  1  0  0  0  0
 25 38  1  0  0  0  0
 25 10  1  0  0  0  0
 26 41  1  0  0  0  0
 26 39  1  0  0  0  0
 29  7  1  0  0  0  0
 33 18  1  0  0  0  0
 34 21  1  0  0  0  0
 35 24  1  0  0  0  0
 36 25  1  0  0  0  0
 37 25  1  0  0  0  0
 40 26  1  0  0  0  0
M  RAD  1  16   2
M  END
