019-652-021.xyz
 OpenBabel07262113413D
Cc1ccc(cc1)C(=O)NNC(=O)c1ccc2c(c1)nc([nH]c2=O)S
 39 41  0  0  1  0  0  0  0  0999 V2000
   10.6821   -2.5025   11.5427 C   0  0  0  0  0  0  0  0  0  0  0  0
    9.3156   -2.2568   10.9582 C   0  0  0  0  0  0  0  0  0  0  0  0
    8.2237   -3.0593   11.3314 C   0  0  0  0  0  0  0  0  0  0  0  0
    6.9597   -2.8511   10.7889 C   0  0  0  0  0  0  0  0  0  0  0  0
    6.7508   -1.8337    9.8455 C   0  0  0  0  0  0  0  0  0  0  0  0
    7.8301   -1.0182    9.4768 C   0  0  0  0  0  0  0  0  0  0  0  0
    9.0941   -1.2314   10.0274 C   0  0  0  0  0  0  0  0  0  0  0  0
    5.3737   -1.6717    9.2983 C   0  0  0  0  0  0  0  0  0  0  0  0
    4.3755   -2.1784    9.8021 O   0  0  0  0  0  0  0  0  0  0  0  0
    5.2598   -0.9062    8.1732 N   0  0  0  0  0  0  0  0  0  0  0  0
    4.0112   -0.7890    7.6076 N   0  0  0  0  0  0  0  0  0  0  0  0
    3.9317   -0.3285    6.3290 C   0  0  0  0  0  0  0  0  0  0  0  0
    4.9413    0.0202    5.7260 O   0  0  0  0  0  0  0  0  0  0  0  0
    2.5576   -0.2834    5.7365 C   0  0  0  0  0  0  0  0  0  0  0  0
    1.3837   -0.3438    6.5212 C   0  0  0  0  0  0  0  0  0  0  0  0
    0.1389   -0.3056    5.9111 C   0  0  0  0  0  0  0  0  0  0  0  0
    0.0429   -0.2049    4.5149 C   0  0  2  0  0  0  0  0  0  0  0  0
    1.2131   -0.1279    3.7172 C   0  0  0  0  0  0  0  0  0  0  0  0
    2.4689   -0.1646    4.3524 C   0  0  0  0  0  0  0  0  0  0  0  0
    1.1580   -0.0000    2.3414 N   0  0  0  0  0  0  0  0  0  0  0  0
   -0.0000    0.0000    1.7771 C   0  0  0  0  0  0  0  0  0  0  0  0
    0.0000    0.0000    0.0000 S   0  0  0  0  0  0  0  0  0  0  0  0
   -1.1861   -0.0841    2.4675 N   0  0  0  0  0  0  0  0  0  0  0  0
   -1.2768   -0.1766    3.8641 C   0  0  0  0  0  0  0  0  0  0  0  0
   -2.3573   -0.2358    4.4169 O   0  0  0  0  0  0  0  0  0  0  0  0
   11.3883   -1.7039   11.2739 H   0  0  0  0  0  0  0  0  0  0  0  0
   11.0996   -3.4567   11.1789 H   0  0  0  0  0  0  0  0  0  0  0  0
   10.6402   -2.5684   12.6417 H   0  0  0  0  0  0  0  0  0  0  0  0
    8.3713   -3.8589   12.0625 H   0  0  0  0  0  0  0  0  0  0  0  0
    6.1079   -3.4670   11.0818 H   0  0  0  0  0  0  0  0  0  0  0  0
    7.6900   -0.1888    8.7798 H   0  0  0  0  0  0  0  0  0  0  0  0
    9.9235   -0.5824    9.7350 H   0  0  0  0  0  0  0  0  0  0  0  0
    6.0095   -0.6455    7.5374 H   0  0  0  0  0  0  0  0  0  0  0  0
    3.3001   -1.3116    8.1145 H   0  0  0  0  0  0  0  0  0  0  0  0
    1.4453   -0.3889    7.6101 H   0  0  0  0  0  0  0  0  0  0  0  0
   -0.7843   -0.3454    6.4918 H   0  0  0  0  0  0  0  0  0  0  0  0
    3.3761   -0.0989    3.7522 H   0  0  0  0  0  0  0  0  0  0  0  0
   -1.9594    1.0515   -0.5967 Au  0  0  0  0  0  0  0  0  0  0  0  0
   -2.0678   -0.1123    1.9635 H   0  0  0  0  0  0  0  0  0  0  0  0
  1 28  1  0  0  0  0
  2  3  1  0  0  0  0
  2  1  1  0  0  0  0
  3 29  1  0  0  0  0
  4 30  1  0  0  0  0
  4  3  2  0  0  0  0
  5  4  1  0  0  0  0
  6  5  2  0  0  0  0
  6  7  1  0  0  0  0
  7  2  2  0  0  0  0
  8  9  2  0  0  0  0
  8  5  1  0  0  0  0
 10  8  1  0  0  0  0
 11 34  1  0  0  0  0
 11 10  1  0  0  0  0
 12 11  1  0  0  0  0
 13 12  2  0  0  0  0
 14 12  1  0  0  0  0
 14 15  1  0  0  0  0
 15 35  1  0  0  0  0
 16 36  1  0  0  0  0
 16 15  2  0  0  0  0
 17 18  1  1  0  0  0
 17 16  1  0  0  0  0
 18 19  1  0  0  0  0
 19 14  2  0  0  0  0
 20 18  2  0  0  0  0
 21 20  2  0  0  0  0
 21 23  1  0  0  0  0
 22 21  1  0  0  0  0
 23 24  1  0  0  0  0
 24 25  2  0  0  0  0
 24 17  1  0  0  0  0
 26  1  1  0  0  0  0
 27  1  1  0  0  0  0
 31  6  1  0  0  0  0
 32  7  1  0  0  0  0
 33 10  1  0  0  0  0
 37 19  1  0  0  0  0
 38 22  1  0  0  0  0
 39 23  1  0  0  0  0
M  RAD  1  17   2
M  END
