019-672-018.xyz
 OpenBabel07262113413D
O=C(c1ccc2c(c1)nc([nH]c2=O)S)NC(c1ccncc1)C
 37 39  0  0  1  0  0  0  0  0999 V2000
   -4.4134    0.3455    6.2682 O   0  0  0  0  0  0  0  0  0  0  0  0
   -3.3642   -0.0091    6.7855 C   0  0  0  0  0  0  0  0  0  0  0  0
   -2.0622   -0.0084    6.0268 C   0  0  0  0  0  0  0  0  0  0  0  0
   -0.8020    0.0070    6.6658 C   0  0  0  0  0  0  0  0  0  0  0  0
    0.3600    0.0108    5.9088 C   0  0  0  0  0  0  0  0  0  0  0  0
    0.2871    0.0015    4.5076 C   0  0  1  0  0  0  0  0  0  0  0  0
   -0.9704    0.0007    3.8519 C   0  0  0  0  0  0  0  0  0  0  0  0
   -2.1391    0.0032    4.6377 C   0  0  0  0  0  0  0  0  0  0  0  0
   -1.0861   -0.0001    2.4743 N   0  0  0  0  0  0  0  0  0  0  0  0
   -0.0000    0.0000    1.7691 C   0  0  0  0  0  0  0  0  0  0  0  0
    1.2597    0.0000    2.3247 N   0  0  0  0  0  0  0  0  0  0  0  0
    1.5182    0.0018    3.7041 C   0  0  0  0  0  0  0  0  0  0  0  0
    2.6582    0.0033    4.1243 O   0  0  0  0  0  0  0  0  0  0  0  0
    0.0000    0.0000    0.0000 S   0  0  0  0  0  0  0  0  0  0  0  0
   -3.2980   -0.4359    8.0818 N   0  0  0  0  0  0  0  0  0  0  0  0
   -4.5067   -0.5531    8.8987 C   0  0  1  0  0  0  0  0  0  0  0  0
   -4.2253   -1.4441   10.0899 C   0  0  0  0  0  0  0  0  0  0  0  0
   -3.1556   -1.1859   10.9590 C   0  0  0  0  0  0  0  0  0  0  0  0
   -2.9511   -2.0278   12.0549 C   0  0  0  0  0  0  0  0  0  0  0  0
   -3.7281   -3.0771   12.3348 N   0  0  0  0  0  0  0  0  0  0  0  0
   -4.7499   -3.3205   11.5119 C   0  0  0  0  0  0  0  0  0  0  0  0
   -5.0372   -2.5435   10.3852 C   0  0  0  0  0  0  0  0  0  0  0  0
   -5.0262    0.8255    9.3315 C   0  0  0  0  0  0  0  0  0  0  0  0
   -0.7342    0.0489    7.7545 H   0  0  0  0  0  0  0  0  0  0  0  0
    1.3474    0.0296    6.3737 H   0  0  0  0  0  0  0  0  0  0  0  0
   -3.1150    0.0150    4.1527 H   0  0  0  0  0  0  0  0  0  0  0  0
    2.0825    0.0011    1.7273 H   0  0  0  0  0  0  0  0  0  0  0  0
   -2.2941    0.0171   -0.3110 Au  0  0  0  0  0  0  0  0  0  0  0  0
   -2.4709   -0.9328    8.3872 H   0  0  0  0  0  0  0  0  0  0  0  0
   -5.2861   -1.0237    8.2769 H   0  0  0  0  0  0  0  0  0  0  0  0
   -2.4899   -0.3346   10.7952 H   0  0  0  0  0  0  0  0  0  0  0  0
   -2.1175   -1.8388   12.7416 H   0  0  0  0  0  0  0  0  0  0  0  0
   -5.3786   -4.1855   11.7538 H   0  0  0  0  0  0  0  0  0  0  0  0
   -5.8844   -2.7965    9.7433 H   0  0  0  0  0  0  0  0  0  0  0  0
   -5.2421    1.4310    8.4410 H   0  0  0  0  0  0  0  0  0  0  0  0
   -4.2801    1.3472    9.9505 H   0  0  0  0  0  0  0  0  0  0  0  0
   -5.9503    0.7152    9.9187 H   0  0  0  0  0  0  0  0  0  0  0  0
  1  2  2  0  0  0  0
  2 15  1  0  0  0  0
  3  4  1  0  0  0  0
  3  2  1  0  0  0  0
  4 24  1  0  0  0  0
  5 25  1  0  0  0  0
  5  4  2  0  0  0  0
  6 12  1  6  0  0  0
  6  5  1  0  0  0  0
  7  6  1  0  0  0  0
  7  8  1  0  0  0  0
  8  3  2  0  0  0  0
  9  7  2  0  0  0  0
 10 11  1  0  0  0  0
 10  9  2  0  0  0  0
 11 12  1  0  0  0  0
 12 13  2  0  0  0  0
 14 10  1  0  0  0  0
 15 29  1  0  0  0  0
 15 16  1  0  0  0  0
 16 30  1  6  0  0  0
 16 23  1  0  0  0  0
 16 17  1  0  0  0  0
 17 22  1  0  0  0  0
 17 18  2  0  0  0  0
 18 19  1  0  0  0  0
 19 20  2  0  0  0  0
 19 32  1  0  0  0  0
 21 33  1  0  0  0  0
 21 20  2  0  0  0  0
 22 21  1  0  0  0  0
 23 37  1  0  0  0  0
 23 36  1  0  0  0  0
 26  8  1  0  0  0  0
 27 11  1  0  0  0  0
 28 14  1  0  0  0  0
 31 18  1  0  0  0  0
 34 22  1  0  0  0  0
 35 23  1  0  0  0  0
M  RAD  2   6   2  22   2
M  END
