019-672-031.xyz
 OpenBabel07262113413D
O=C(N1CCCC1c1ccccc1)c1ccc2c(c1)nc([nH]c2=O)S
 42 45  0  0  1  0  0  0  0  0999 V2000
   -3.2856   -0.8402    7.8714 O   0  0  0  0  0  0  0  0  0  0  0  0
   -3.2609   -0.0613    6.9293 C   0  0  0  0  0  0  0  0  0  0  0  0
   -4.2972    0.7955    6.6834 N   0  0  0  0  0  0  0  0  0  0  0  0
   -4.3768    1.8677    5.6827 C   0  0  0  0  0  0  0  0  0  0  0  0
   -5.5483    2.7255    6.1725 C   0  0  0  0  0  0  0  0  0  0  0  0
   -6.4548    1.6977    6.8566 C   0  0  0  0  0  0  0  0  0  0  0  0
   -5.4486    0.7905    7.5953 C   0  0  2  0  0  0  0  0  0  0  0  0
   -5.1206    1.3114    8.9877 C   0  0  0  0  0  0  0  0  0  0  0  0
   -4.0187    2.1374    9.2372 C   0  0  0  0  0  0  0  0  0  0  0  0
   -3.7852    2.6484   10.5167 C   0  0  0  0  0  0  0  0  0  0  0  0
   -4.6527    2.3392   11.5667 C   0  0  0  0  0  0  0  0  0  0  0  0
   -5.7531    1.5103   11.3284 C   0  0  0  0  0  0  0  0  0  0  0  0
   -5.9813    1.0010   10.0491 C   0  0  0  0  0  0  0  0  0  0  0  0
   -2.0494    0.0032    6.0351 C   0  0  0  0  0  0  0  0  0  0  0  0
   -0.7880   -0.0401    6.6698 C   0  0  0  0  0  0  0  0  0  0  0  0
    0.3715   -0.0290    5.9119 C   0  0  0  0  0  0  0  0  0  0  0  0
    0.2974   -0.0068    4.5093 C   0  0  2  0  0  0  0  0  0  0  0  0
   -0.9603    0.0016    3.8576 C   0  0  0  0  0  0  0  0  0  0  0  0
   -2.1290    0.0141    4.6463 C   0  0  0  0  0  0  0  0  0  0  0  0
   -1.0836    0.0017    2.4792 N   0  0  0  0  0  0  0  0  0  0  0  0
    0.0000   -0.0000    1.7712 C   0  0  0  0  0  0  0  0  0  0  0  0
    1.2607    0.0000    2.3218 N   0  0  0  0  0  0  0  0  0  0  0  0
    1.5246   -0.0032    3.7020 C   0  0  0  0  0  0  0  0  0  0  0  0
    2.6673   -0.0034    4.1144 O   0  0  0  0  0  0  0  0  0  0  0  0
    0.0000    0.0000    0.0000 S   0  0  0  0  0  0  0  0  0  0  0  0
   -3.4288    2.4210    5.6109 H   0  0  0  0  0  0  0  0  0  0  0  0
   -4.5976    1.4603    4.6812 H   0  0  0  0  0  0  0  0  0  0  0  0
   -6.0393    3.2690    5.3525 H   0  0  0  0  0  0  0  0  0  0  0  0
   -5.1981    3.4663    6.9078 H   0  0  0  0  0  0  0  0  0  0  0  0
   -7.0005    1.1072    6.1020 H   0  0  0  0  0  0  0  0  0  0  0  0
   -7.1896    2.1428    7.5408 H   0  0  0  0  0  0  0  0  0  0  0  0
   -5.8244   -0.2380    7.6992 H   0  0  0  0  0  0  0  0  0  0  0  0
   -3.3237    2.3694    8.4279 H   0  0  0  0  0  0  0  0  0  0  0  0
   -2.9161    3.2867   10.6943 H   0  0  0  0  0  0  0  0  0  0  0  0
   -4.4685    2.7352   12.5681 H   0  0  0  0  0  0  0  0  0  0  0  0
   -6.4323    1.2529   12.1450 H   0  0  0  0  0  0  0  0  0  0  0  0
   -6.8382    0.3447    9.8712 H   0  0  0  0  0  0  0  0  0  0  0  0
   -0.7522   -0.0898    7.7589 H   0  0  0  0  0  0  0  0  0  0  0  0
    1.3597   -0.0461    6.3753 H   0  0  0  0  0  0  0  0  0  0  0  0
   -3.0861    0.0085    4.1261 H   0  0  0  0  0  0  0  0  0  0  0  0
    2.0820   -0.0027    1.7225 H   0  0  0  0  0  0  0  0  0  0  0  0
   -2.2882   -0.0418   -0.3299 Au  0  0  0  0  0  0  0  0  0  0  0  0
  2  1  2  0  0  0  0
  3  2  1  0  0  0  0
  3  7  1  0  0  0  0
  4  5  1  0  0  0  0
  4  3  1  0  0  0  0
  5  6  1  0  0  0  0
  5 29  1  0  0  0  0
  6 31  1  0  0  0  0
  6  7  1  0  0  0  0
  7 32  1  1  0  0  0
  7  8  1  0  0  0  0
  8  9  2  0  0  0  0
  8 13  1  0  0  0  0
  9 10  1  0  0  0  0
 10 34  1  0  0  0  0
 10 11  2  0  0  0  0
 11 35  1  0  0  0  0
 12 11  1  0  0  0  0
 12 36  1  0  0  0  0
 13 12  2  0  0  0  0
 14 15  1  0  0  0  0
 14  2  1  0  0  0  0
 15 38  1  0  0  0  0
 16 39  1  0  0  0  0
 16 15  2  0  0  0  0
 17 23  1  6  0  0  0
 17 16  1  0  0  0  0
 18 17  1  0  0  0  0
 18 19  1  0  0  0  0
 19 14  2  0  0  0  0
 20 18  2  0  0  0  0
 21 22  1  0  0  0  0
 21 20  2  0  0  0  0
 22 23  1  0  0  0  0
 23 24  2  0  0  0  0
 25 21  1  0  0  0  0
 26  4  1  0  0  0  0
 27  4  1  0  0  0  0
 28  5  1  0  0  0  0
 30  6  1  0  0  0  0
 33  9  1  0  0  0  0
 37 13  1  0  0  0  0
 40 19  1  0  0  0  0
 41 22  1  0  0  0  0
 42 25  1  0  0  0  0
M  RAD  1  17   2
M  END
