019-910-582.xyz
 OpenBabel07262113413D
Clc1ccc(cc1)c1[nH]c(c(n1)S)c1ccc(cc1)Cl
 30 32  0  0  1  0  0  0  0  0999 V2000
    0.0000    0.0000    0.0000 S   0  0  0  0  0  0  0  0  0  0  0  0
    0.0000   -0.0000    1.7512 C   0  0  0  0  0  0  0  0  0  0  0  0
    1.1624    0.0000    2.4778 N   0  0  0  0  0  0  0  0  0  0  0  0
    0.8196   -0.0397    3.7507 C   0  0  0  0  0  0  0  0  0  0  0  0
   -0.5516   -0.0500    3.8757 N   0  0  0  0  0  0  0  0  0  0  0  0
   -1.1109   -0.0271    2.6169 C   0  0  1  0  0  0  0  0  0  0  0  0
   -2.5545    0.0390    2.4137 C   0  0  0  0  0  0  0  0  0  0  0  0
   -3.3946    0.5397    3.4304 C   0  0  0  0  0  0  0  0  0  0  0  0
   -4.7756    0.6053    3.2645 C   0  0  0  0  0  0  0  0  0  0  0  0
   -5.3417    0.1741    2.0618 C   0  0  0  0  0  0  0  0  0  0  0  0
   -7.0705    0.2553    1.8431 Cl  0  0  0  0  0  0  0  0  0  0  0  0
   -4.5326   -0.3171    1.0332 C   0  0  0  0  0  0  0  0  0  0  0  0
   -3.1533   -0.3844    1.2099 C   0  0  0  0  0  0  0  0  0  0  0  0
    1.7476   -0.0773    4.8794 C   0  0  0  0  0  0  0  0  0  0  0  0
    3.1266   -0.1835    4.6191 C   0  0  0  0  0  0  0  0  0  0  0  0
    4.0474   -0.2218    5.6608 C   0  0  0  0  0  0  0  0  0  0  0  0
    3.5956   -0.1545    6.9838 C   0  0  0  0  0  0  0  0  0  0  0  0
    4.7462   -0.2053    8.2944 Cl  0  0  0  0  0  0  0  0  0  0  0  0
    2.2318   -0.0451    7.2666 C   0  0  0  0  0  0  0  0  0  0  0  0
    1.3172   -0.0050    6.2154 C   0  0  0  0  0  0  0  0  0  0  0  0
   -0.0651    2.2528   -0.5211 Au  0  0  0  0  0  0  0  0  0  0  0  0
   -1.0715   -0.1683    4.7358 H   0  0  0  0  0  0  0  0  0  0  0  0
   -2.9654    0.9183    4.3610 H   0  0  0  0  0  0  0  0  0  0  0  0
   -5.4148    1.0004    4.0550 H   0  0  0  0  0  0  0  0  0  0  0  0
   -4.9875   -0.6509    0.0997 H   0  0  0  0  0  0  0  0  0  0  0  0
   -2.5237   -0.7689    0.4087 H   0  0  0  0  0  0  0  0  0  0  0  0
    3.4543   -0.2355    3.5799 H   0  0  0  0  0  0  0  0  0  0  0  0
    5.1159   -0.3054    5.4584 H   0  0  0  0  0  0  0  0  0  0  0  0
    1.8954    0.0122    8.3024 H   0  0  0  0  0  0  0  0  0  0  0  0
    0.2562    0.0961    6.4570 H   0  0  0  0  0  0  0  0  0  0  0  0
  1  2  1  0  0  0  0
  2  3  2  0  0  0  0
  2  6  1  0  0  0  0
  3  4  2  0  0  0  0
  4  5  1  0  0  0  0
  4 14  1  0  0  0  0
  5 22  1  0  0  0  0
  6  7  1  1  0  0  0
  6  5  1  0  0  0  0
  7  8  2  0  0  0  0
  8 23  1  0  0  0  0
  9  8  1  0  0  0  0
  9 24  1  0  0  0  0
 10  9  2  0  0  0  0
 11 10  1  0  0  0  0
 12 13  2  0  0  0  0
 12 10  1  0  0  0  0
 13  7  1  0  0  0  0
 14 20  1  0  0  0  0
 15 14  2  0  0  0  0
 15 16  1  0  0  0  0
 16 17  2  0  0  0  0
 17 19  1  0  0  0  0
 17 18  1  0  0  0  0
 19 29  1  0  0  0  0
 20 30  1  0  0  0  0
 20 19  2  0  0  0  0
 21  1  1  0  0  0  0
 25 12  1  0  0  0  0
 26 13  1  0  0  0  0
 27 15  1  0  0  0  0
 28 16  1  0  0  0  0
M  RAD  1   6   2
M  END
