019-955-646.xyz
 OpenBabel07262113413D
SC1=NC(=O)/C(=C\2/CCCCCN2)/C(=O)N1
 29 30  0  0  0  0  0  0  0  0999 V2000
    0.0000    0.0000    0.0000 S   0  0  0  0  0  0  0  0  0  0  0  0
   -0.0000   -0.0000    1.7682 C   0  0  0  0  0  0  0  0  0  0  0  0
    1.0966   -0.0000    2.4567 N   0  0  0  0  0  0  0  0  0  0  0  0
    1.0436   -0.0014    3.8456 C   0  0  0  0  0  0  0  0  0  0  0  0
    2.1213    0.0177    4.4627 O   0  0  0  0  0  0  0  0  0  0  0  0
   -0.2655   -0.0279    4.5266 C   0  0  0  0  0  0  0  0  0  0  0  0
   -1.4824   -0.0032    3.7226 C   0  0  0  0  0  0  0  0  0  0  0  0
   -2.6542    0.0191    4.0782 O   0  0  0  0  0  0  0  0  0  0  0  0
   -1.2409    0.0010    2.3318 N   0  0  0  0  0  0  0  0  0  0  0  0
   -0.3144   -0.0566    5.9492 C   0  0  0  0  0  0  0  0  0  0  0  0
   -1.5985   -0.1035    6.7377 C   0  0  0  0  0  0  0  0  0  0  0  0
   -1.8765    1.1989    7.5168 C   0  0  0  0  0  0  0  0  0  0  0  0
   -1.1199    1.3219    8.8420 C   0  0  0  0  0  0  0  0  0  0  0  0
    0.4063    1.2864    8.7295 C   0  0  0  0  0  0  0  0  0  0  0  0
    0.9636    0.0130    8.0805 C   0  0  0  0  0  0  0  0  0  0  0  0
    0.8225   -0.0279    6.6355 N   0  0  0  0  0  0  0  0  0  0  0  0
    2.3112    0.0045   -0.2387 Au  0  0  0  0  0  0  0  0  0  0  0  0
   -2.0785    0.0164    1.7578 H   0  0  0  0  0  0  0  0  0  0  0  0
   -2.4225   -0.3003    6.0499 H   0  0  0  0  0  0  0  0  0  0  0  0
   -1.5328   -0.9468    7.4477 H   0  0  0  0  0  0  0  0  0  0  0  0
   -1.6560    2.0612    6.8648 H   0  0  0  0  0  0  0  0  0  0  0  0
   -2.9573    1.2445    7.7245 H   0  0  0  0  0  0  0  0  0  0  0  0
   -1.4414    0.4984    9.5063 H   0  0  0  0  0  0  0  0  0  0  0  0
   -1.4211    2.2544    9.3479 H   0  0  0  0  0  0  0  0  0  0  0  0
    0.7713    2.1557    8.1558 H   0  0  0  0  0  0  0  0  0  0  0  0
    0.8405    1.3707    9.7398 H   0  0  0  0  0  0  0  0  0  0  0  0
    2.0410   -0.0649    8.2842 H   0  0  0  0  0  0  0  0  0  0  0  0
    0.4920   -0.8761    8.5373 H   0  0  0  0  0  0  0  0  0  0  0  0
    1.6594    0.0095    6.0110 H   0  0  0  0  0  0  0  0  0  0  0  0
  1  2  1  0  0  0  0
  2  9  1  0  0  0  0
  2  3  2  0  0  0  0
  3  4  2  0  0  0  0
  4  5  2  0  0  0  0
  4  6  1  0  0  0  0
  6 10  2  0  0  0  0
  7  8  2  0  0  0  0
  7  6  1  0  0  0  0
  9  7  1  0  0  0  0
 10 16  1  0  0  0  0
 10 11  1  0  0  0  0
 11 20  1  0  0  0  0
 11 12  1  0  0  0  0
 12 22  1  0  0  0  0
 12 13  1  0  0  0  0
 13 24  1  0  0  0  0
 13 23  1  0  0  0  0
 14 13  1  0  0  0  0
 14 26  1  0  0  0  0
 15 27  1  0  0  0  0
 15 28  1  0  0  0  0
 15 14  1  0  0  0  0
 16 15  1  0  0  0  0
 17  1  1  0  0  0  0
 18  9  1  0  0  0  0
 19 11  1  0  0  0  0
 21 12  1  0  0  0  0
 25 14  1  0  0  0  0
 29 16  1  0  0  0  0
M  END
