020-069-456.xyz
 OpenBabel07262113413D
Cc1ccc(s1)C(N(C(=O)c1ccc2c(c1)nc([nH]c2=O)S)C)C
 41 43  0  0  1  0  0  0  0  0999 V2000
   -3.0228   -5.3015   10.2501 C   0  0  0  0  0  0  0  0  0  0  0  0
   -3.6022   -4.7122    9.0021 C   0  0  0  0  0  0  0  0  0  0  0  0
   -4.6237   -5.1916    8.2207 C   0  0  0  0  0  0  0  0  0  0  0  0
   -4.9202   -4.3607    7.0941 C   0  0  0  0  0  0  0  0  0  0  0  0
   -4.1190   -3.2505    7.0147 C   0  0  0  0  0  0  0  0  0  0  0  0
   -2.9862   -3.2161    8.3450 S   0  0  0  0  0  0  0  0  0  0  0  0
   -4.1020   -2.1293    6.0033 C   0  0  2  0  0  0  0  0  0  0  0  0
   -4.3009   -0.8284    6.6676 N   0  0  0  0  0  0  0  0  0  0  0  0
   -3.2801    0.0638    6.9020 C   0  0  0  0  0  0  0  0  0  0  0  0
   -3.3565    0.9231    7.7666 O   0  0  0  0  0  0  0  0  0  0  0  0
   -2.0501   -0.0139    6.0341 C   0  0  0  0  0  0  0  0  0  0  0  0
   -0.7915    0.0222    6.6709 C   0  0  0  0  0  0  0  0  0  0  0  0
    0.3683    0.0157    5.9122 C   0  0  0  0  0  0  0  0  0  0  0  0
    0.2947    0.0021    4.5097 C   0  0  1  0  0  0  0  0  0  0  0  0
   -0.9629   -0.0031    3.8561 C   0  0  0  0  0  0  0  0  0  0  0  0
   -2.1309   -0.0157    4.6444 C   0  0  0  0  0  0  0  0  0  0  0  0
   -1.0845   -0.0018    2.4778 N   0  0  0  0  0  0  0  0  0  0  0  0
   -0.0000    0.0000    1.7709 C   0  0  0  0  0  0  0  0  0  0  0  0
    1.2601    0.0000    2.3228 N   0  0  0  0  0  0  0  0  0  0  0  0
    1.5226    0.0008    3.7033 C   0  0  0  0  0  0  0  0  0  0  0  0
    2.6649    0.0005    4.1168 O   0  0  0  0  0  0  0  0  0  0  0  0
    0.0000    0.0000    0.0000 S   0  0  0  0  0  0  0  0  0  0  0  0
   -5.4787   -0.6832    7.5134 C   0  0  0  0  0  0  0  0  0  0  0  0
   -5.0912   -2.3492    4.8588 C   0  0  0  0  0  0  0  0  0  0  0  0
   -3.5525   -6.2311   10.5047 H   0  0  0  0  0  0  0  0  0  0  0  0
   -1.9533   -5.5420   10.1321 H   0  0  0  0  0  0  0  0  0  0  0  0
   -3.1116   -4.6140   11.1074 H   0  0  0  0  0  0  0  0  0  0  0  0
   -5.1546   -6.1174    8.4494 H   0  0  0  0  0  0  0  0  0  0  0  0
   -5.7032   -4.5861    6.3698 H   0  0  0  0  0  0  0  0  0  0  0  0
   -3.0962   -2.0977    5.5664 H   0  0  0  0  0  0  0  0  0  0  0  0
   -0.7528    0.0566    7.7605 H   0  0  0  0  0  0  0  0  0  0  0  0
    1.3565    0.0271    6.3756 H   0  0  0  0  0  0  0  0  0  0  0  0
   -3.0942   -0.0158    4.1331 H   0  0  0  0  0  0  0  0  0  0  0  0
    2.0820    0.0033    1.7244 H   0  0  0  0  0  0  0  0  0  0  0  0
   -2.2895    0.0407   -0.3254 Au  0  0  0  0  0  0  0  0  0  0  0  0
   -5.7439    0.3783    7.5876 H   0  0  0  0  0  0  0  0  0  0  0  0
   -5.2940   -1.0602    8.5332 H   0  0  0  0  0  0  0  0  0  0  0  0
   -6.3151   -1.2443    7.0783 H   0  0  0  0  0  0  0  0  0  0  0  0
   -5.0214   -1.5191    4.1415 H   0  0  0  0  0  0  0  0  0  0  0  0
   -4.8627   -3.2866    4.3311 H   0  0  0  0  0  0  0  0  0  0  0  0
   -6.1302   -2.4067    5.2154 H   0  0  0  0  0  0  0  0  0  0  0  0
  1 25  1  0  0  0  0
  1 27  1  0  0  0  0
  2  1  1  0  0  0  0
  3 28  1  0  0  0  0
  3  2  2  0  0  0  0
  4  3  1  0  0  0  0
  5  4  2  0  0  0  0
  5  6  1  0  0  0  0
  6  2  1  0  0  0  0
  7 30  1  6  0  0  0
  7  8  1  0  0  0  0
  7  5  1  0  0  0  0
  8  9  1  0  0  0  0
  8 23  1  0  0  0  0
  9 10  2  0  0  0  0
 11 12  1  0  0  0  0
 11  9  1  0  0  0  0
 12 31  1  0  0  0  0
 13 32  1  0  0  0  0
 13 12  2  0  0  0  0
 14 20  1  6  0  0  0
 14 13  1  0  0  0  0
 15 14  1  0  0  0  0
 15 16  1  0  0  0  0
 16 11  2  0  0  0  0
 17 15  2  0  0  0  0
 18 19  1  0  0  0  0
 18 17  2  0  0  0  0
 19 20  1  0  0  0  0
 20 21  2  0  0  0  0
 22 18  1  0  0  0  0
 23 36  1  0  0  0  0
 23 37  1  0  0  0  0
 24 41  1  0  0  0  0
 24  7  1  0  0  0  0
 26  1  1  0  0  0  0
 29  4  1  0  0  0  0
 33 16  1  0  0  0  0
 34 19  1  0  0  0  0
 35 22  1  0  0  0  0
 38 23  1  0  0  0  0
 39 24  1  0  0  0  0
 40 24  1  0  0  0  0
M  RAD  1  14   2
M  END
