020-069-458.xyz
 OpenBabel07262113413D
Sc1nc2cc(ccc2c(=O)[nH]1)C(=O)Nc1ccc2c(c1)ccc(=O)o2
 37 40  0  0  1  0  0  0  0  0999 V2000
    0.0000    0.0000    0.0000 S   0  0  0  0  0  0  0  0  0  0  0  0
    0.0000    0.0000    1.7693 C   0  0  0  0  0  0  0  0  0  0  0  0
    1.0830   -0.0000    2.4801 N   0  0  0  0  0  0  0  0  0  0  0  0
    0.9557    0.0003    3.8568 C   0  0  0  0  0  0  0  0  0  0  0  0
    2.1215   -0.0017    4.6496 C   0  0  0  0  0  0  0  0  0  0  0  0
    2.0379    0.0057    6.0405 C   0  0  0  0  0  0  0  0  0  0  0  0
    0.7762    0.0416    6.6724 C   0  0  0  0  0  0  0  0  0  0  0  0
   -0.3805    0.0328    5.9099 C   0  0  0  0  0  0  0  0  0  0  0  0
   -0.3024    0.0094    4.5079 C   0  0  1  0  0  0  0  0  0  0  0  0
   -1.5290    0.0045    3.6971 C   0  0  0  0  0  0  0  0  0  0  0  0
   -2.6708    0.0063    4.1094 O   0  0  0  0  0  0  0  0  0  0  0  0
   -1.2616   -0.0014    2.3181 N   0  0  0  0  0  0  0  0  0  0  0  0
    3.2502    0.0238    6.9348 C   0  0  0  0  0  0  0  0  0  0  0  0
    3.1958    0.4731    8.0668 O   0  0  0  0  0  0  0  0  0  0  0  0
    4.3850   -0.5159    6.3737 N   0  0  0  0  0  0  0  0  0  0  0  0
    5.6728   -0.6231    6.9250 C   0  0  0  0  0  0  0  0  0  0  0  0
    6.0133   -0.1018    8.1940 C   0  0  0  0  0  0  0  0  0  0  0  0
    7.3097   -0.2330    8.6787 C   0  0  0  0  0  0  0  0  0  0  0  0
    8.2864   -0.8815    7.9190 C   0  0  0  0  0  0  0  0  0  0  0  0
    7.9667   -1.4101    6.6521 C   0  0  0  0  0  0  0  0  0  0  0  0
    6.6548   -1.2709    6.1704 C   0  0  0  0  0  0  0  0  0  0  0  0
    9.0256   -2.0681    5.9252 C   0  0  0  0  0  0  0  0  0  0  0  0
   10.2673   -2.1623    6.4555 C   0  0  0  0  0  0  0  0  0  0  0  0
   10.5897   -1.6082    7.7729 C   0  0  0  0  0  0  0  0  0  0  0  0
   11.6619   -1.6476    8.3133 O   0  0  0  0  0  0  0  0  0  0  0  0
    9.5384   -0.9858    8.4342 O   0  0  0  0  0  0  0  0  0  0  0  0
    2.2837    0.0702   -0.3495 Au  0  0  0  0  0  0  0  0  0  0  0  0
    3.0768    0.0251    4.1223 H   0  0  0  0  0  0  0  0  0  0  0  0
    0.7431    0.0761    7.7617 H   0  0  0  0  0  0  0  0  0  0  0  0
   -1.3701    0.0472    6.3702 H   0  0  0  0  0  0  0  0  0  0  0  0
   -2.0815    0.0012    1.7166 H   0  0  0  0  0  0  0  0  0  0  0  0
    4.2667   -0.9531    5.4686 H   0  0  0  0  0  0  0  0  0  0  0  0
    5.2458    0.3948    8.7818 H   0  0  0  0  0  0  0  0  0  0  0  0
    7.5841    0.1650    9.6567 H   0  0  0  0  0  0  0  0  0  0  0  0
    6.4107   -1.6813    5.1863 H   0  0  0  0  0  0  0  0  0  0  0  0
    8.8074   -2.4896    4.9399 H   0  0  0  0  0  0  0  0  0  0  0  0
   11.0931   -2.6516    5.9385 H   0  0  0  0  0  0  0  0  0  0  0  0
  1  2  1  0  0  0  0
  2 12  1  0  0  0  0
  2  3  2  0  0  0  0
  3  4  2  0  0  0  0
  4  9  1  0  0  0  0
  4  5  1  0  0  0  0
  5  6  2  0  0  0  0
  6  7  1  0  0  0  0
  6 13  1  0  0  0  0
  7 29  1  0  0  0  0
  8 30  1  0  0  0  0
  8  7  2  0  0  0  0
  9 10  1  6  0  0  0
  9  8  1  0  0  0  0
 10 11  2  0  0  0  0
 12 10  1  0  0  0  0
 13 14  2  0  0  0  0
 15 16  1  0  0  0  0
 15 13  1  0  0  0  0
 16 17  2  0  0  0  0
 17 18  1  0  0  0  0
 17 33  1  0  0  0  0
 18 34  1  0  0  0  0
 19 26  1  0  0  0  0
 19 18  2  0  0  0  0
 20 19  1  0  0  0  0
 21 20  2  0  0  0  0
 21 16  1  0  0  0  0
 22 23  2  0  0  0  0
 22 20  1  0  0  0  0
 23 24  1  0  0  0  0
 24 25  2  0  0  0  0
 24 26  1  0  0  0  0
 27  1  1  0  0  0  0
 28  5  1  0  0  0  0
 31 12  1  0  0  0  0
 32 15  1  0  0  0  0
 35 21  1  0  0  0  0
 36 22  1  0  0  0  0
 37 23  1  0  0  0  0
M  RAD  1   9   2
M  END
