020-069-442.xyz
 OpenBabel07262113413D
O=C(c1ccc2c(c1)nc([nH]c2=O)S)Nc1cccc2c1nccc2
 37 40  0  0  1  0  0  0  0  0999 V2000
    0.0000    0.0000    0.0000 S   0  0  0  0  0  0  0  0  0  0  0  0
    0.0000    0.0000    1.7697 C   0  0  0  0  0  0  0  0  0  0  0  0
    1.0859    0.0000    2.4745 N   0  0  0  0  0  0  0  0  0  0  0  0
    0.9702    0.0006    3.8525 C   0  0  0  0  0  0  0  0  0  0  0  0
    2.1384    0.0023    4.6380 C   0  0  0  0  0  0  0  0  0  0  0  0
    2.0639   -0.0080    6.0280 C   0  0  0  0  0  0  0  0  0  0  0  0
    0.8028    0.0041    6.6672 C   0  0  0  0  0  0  0  0  0  0  0  0
   -0.3585    0.0085    5.9093 C   0  0  0  0  0  0  0  0  0  0  0  0
   -0.2871    0.0013    4.5080 C   0  0  1  0  0  0  0  0  0  0  0  0
   -1.5182    0.0016    3.7048 C   0  0  0  0  0  0  0  0  0  0  0  0
   -2.6585    0.0029    4.1244 O   0  0  0  0  0  0  0  0  0  0  0  0
   -1.2598   -0.0000    2.3252 N   0  0  0  0  0  0  0  0  0  0  0  0
    3.3727   -0.0058    6.7765 C   0  0  0  0  0  0  0  0  0  0  0  0
    4.4235    0.2843    6.2259 O   0  0  0  0  0  0  0  0  0  0  0  0
    3.2790   -0.3635    8.0960 N   0  0  0  0  0  0  0  0  0  0  0  0
    4.2848   -0.4212    9.0536 C   0  0  0  0  0  0  0  0  0  0  0  0
    5.6220   -0.1138    8.8479 C   0  0  0  0  0  0  0  0  0  0  0  0
    6.5409   -0.2106    9.9205 C   0  0  0  0  0  0  0  0  0  0  0  0
    6.1502   -0.6074   11.1822 C   0  0  0  0  0  0  0  0  0  0  0  0
    4.7886   -0.9303   11.4261 C   0  0  1  0  0  0  0  0  0  0  0  0
    4.2871   -1.3477   12.6866 C   0  0  0  0  0  0  0  0  0  0  0  0
    2.9471   -1.6391   12.8277 C   0  0  0  0  0  0  0  0  0  0  0  0
    2.0985   -1.5124   11.6998 C   0  0  0  0  0  0  0  0  0  0  0  0
    2.5272   -1.1281   10.5159 N   0  0  0  0  0  0  0  0  0  0  0  0
    3.8440   -0.8379   10.3583 C   0  0  0  0  0  0  0  0  0  0  0  0
    2.2945    0.0100   -0.3080 Au  0  0  0  0  0  0  0  0  0  0  0  0
    3.1142    0.0122    4.1529 H   0  0  0  0  0  0  0  0  0  0  0  0
    0.7247    0.0383    7.7556 H   0  0  0  0  0  0  0  0  0  0  0  0
   -1.3452    0.0239    6.3756 H   0  0  0  0  0  0  0  0  0  0  0  0
   -2.0825    0.0005    1.7280 H   0  0  0  0  0  0  0  0  0  0  0  0
    2.3844   -0.6670    8.4778 H   0  0  0  0  0  0  0  0  0  0  0  0
    5.9453    0.1969    7.8576 H   0  0  0  0  0  0  0  0  0  0  0  0
    7.5878    0.0378    9.7306 H   0  0  0  0  0  0  0  0  0  0  0  0
    6.8711   -0.6784   11.9998 H   0  0  0  0  0  0  0  0  0  0  0  0
    4.9740   -1.4330   13.5328 H   0  0  0  0  0  0  0  0  0  0  0  0
    2.5337   -1.9624   13.7850 H   0  0  0  0  0  0  0  0  0  0  0  0
    1.0301   -1.7393   11.7916 H   0  0  0  0  0  0  0  0  0  0  0  0
  1  2  1  0  0  0  0
  2 12  1  0  0  0  0
  2  3  2  0  0  0  0
  3  4  2  0  0  0  0
  4  9  1  0  0  0  0
  4  5  1  0  0  0  0
  5  6  2  0  0  0  0
  6  7  1  0  0  0  0
  6 13  1  0  0  0  0
  7 28  1  0  0  0  0
  8 29  1  0  0  0  0
  8  7  2  0  0  0  0
  9 10  1  6  0  0  0
  9  8  1  0  0  0  0
 10 11  2  0  0  0  0
 12 10  1  0  0  0  0
 13 15  1  0  0  0  0
 14 13  2  0  0  0  0
 15 31  1  0  0  0  0
 15 16  1  0  0  0  0
 16 25  1  0  0  0  0
 17 16  2  0  0  0  0
 17 18  1  0  0  0  0
 18 19  2  0  0  0  0
 19 20  1  0  0  0  0
 19 34  1  0  0  0  0
 20 25  1  1  0  0  0
 20 21  1  0  0  0  0
 21 22  2  0  0  0  0
 21 35  1  0  0  0  0
 22 36  1  0  0  0  0
 23 37  1  0  0  0  0
 23 22  1  0  0  0  0
 24 23  2  0  0  0  0
 25 24  2  0  0  0  0
 26  1  1  0  0  0  0
 27  5  1  0  0  0  0
 30 12  1  0  0  0  0
 32 17  1  0  0  0  0
 33 18  1  0  0  0  0
M  RAD  2   9   2  20   2
M  END
