020-069-432.xyz
 OpenBabel07262113413D
O=C(c1ccc2c(c1)nc([nH]c2=O)S)NC(c1cccc2c1cccc2)C
 44 47  0  0  1  0  0  0  0  0999 V2000
   -4.8506   -0.9885    5.6796 O   0  0  0  0  0  0  0  0  0  0  0  0
   -3.9040   -0.5810    6.3407 C   0  0  0  0  0  0  0  0  0  0  0  0
   -2.5271   -0.4493    5.7426 C   0  0  0  0  0  0  0  0  0  0  0  0
   -1.3481   -0.4509    6.5205 C   0  0  0  0  0  0  0  0  0  0  0  0
   -0.1083   -0.3320    5.9092 C   0  0  0  0  0  0  0  0  0  0  0  0
   -0.0224   -0.2102    4.5147 C   0  0  2  0  0  0  0  0  0  0  0  0
   -1.1973   -0.2175    3.7197 C   0  0  0  0  0  0  0  0  0  0  0  0
   -2.4455   -0.3493    4.3568 C   0  0  0  0  0  0  0  0  0  0  0  0
   -1.1537   -0.0836    2.3436 N   0  0  0  0  0  0  0  0  0  0  0  0
   -0.0000    0.0000    1.7773 C   0  0  0  0  0  0  0  0  0  0  0  0
    1.1908    0.0000    2.4655 N   0  0  0  0  0  0  0  0  0  0  0  0
    1.2906   -0.0892    3.8615 C   0  0  0  0  0  0  0  0  0  0  0  0
    2.3740   -0.0743    4.4121 O   0  0  0  0  0  0  0  0  0  0  0  0
    0.0000    0.0000    0.0000 S   0  0  0  0  0  0  0  0  0  0  0  0
   -4.0241   -0.1934    7.6408 N   0  0  0  0  0  0  0  0  0  0  0  0
   -5.2902   -0.2402    8.3745 C   0  0  2  0  0  0  0  0  0  0  0  0
   -5.6023    1.1417    8.9340 C   0  0  0  0  0  0  0  0  0  0  0  0
   -5.4911    1.4117   10.2853 C   0  0  0  0  0  0  0  0  0  0  0  0
   -5.7285    2.7072   10.8076 C   0  0  0  0  0  0  0  0  0  0  0  0
   -6.0768    3.7373    9.9665 C   0  0  0  0  0  0  0  0  0  0  0  0
   -6.2109    3.5139    8.5682 C   0  0  0  0  0  0  0  0  0  0  0  0
   -5.9774    2.2004    8.0355 C   0  0  0  0  0  0  0  0  0  0  0  0
   -6.1326    2.0074    6.6323 C   0  0  0  0  0  0  0  0  0  0  0  0
   -6.4880    3.0548    5.8069 C   0  0  0  0  0  0  0  0  0  0  0  0
   -6.7091    4.3492    6.3344 C   0  0  0  0  0  0  0  0  0  0  0  0
   -6.5757    4.5691    7.6879 C   0  0  0  0  0  0  0  0  0  0  0  0
   -5.2656   -1.3736    9.4016 C   0  0  0  0  0  0  0  0  0  0  0  0
   -1.4010   -0.5776    7.6037 H   0  0  0  0  0  0  0  0  0  0  0  0
    0.8184   -0.3389    6.4859 H   0  0  0  0  0  0  0  0  0  0  0  0
   -3.3545   -0.3710    3.7562 H   0  0  0  0  0  0  0  0  0  0  0  0
    2.0710    0.0345    1.9594 H   0  0  0  0  0  0  0  0  0  0  0  0
    1.8561    1.2273   -0.5920 Au  0  0  0  0  0  0  0  0  0  0  0  0
   -3.2456    0.2716    8.0914 H   0  0  0  0  0  0  0  0  0  0  0  0
   -6.0434   -0.4960    7.6171 H   0  0  0  0  0  0  0  0  0  0  0  0
   -5.2141    0.6164   10.9781 H   0  0  0  0  0  0  0  0  0  0  0  0
   -5.6303    2.8791   11.8819 H   0  0  0  0  0  0  0  0  0  0  0  0
   -6.2580    4.7413   10.3585 H   0  0  0  0  0  0  0  0  0  0  0  0
   -5.9777    1.0226    6.1911 H   0  0  0  0  0  0  0  0  0  0  0  0
   -6.6019    2.8799    4.7345 H   0  0  0  0  0  0  0  0  0  0  0  0
   -6.9892    5.1685    5.6680 H   0  0  0  0  0  0  0  0  0  0  0  0
   -6.7501    5.5628    8.1089 H   0  0  0  0  0  0  0  0  0  0  0  0
   -4.4455   -1.2524   10.1267 H   0  0  0  0  0  0  0  0  0  0  0  0
   -5.1140   -2.3305    8.8816 H   0  0  0  0  0  0  0  0  0  0  0  0
   -6.2138   -1.4252    9.9572 H   0  0  0  0  0  0  0  0  0  0  0  0
  1  2  2  0  0  0  0
  2 15  1  0  0  0  0
  3  2  1  0  0  0  0
  3  4  1  0  0  0  0
  4 28  1  0  0  0  0
  5 29  1  0  0  0  0
  5  4  2  0  0  0  0
  6  7  1  6  0  0  0
  6  5  1  0  0  0  0
  7  8  1  0  0  0  0
  8  3  2  0  0  0  0
  9  7  2  0  0  0  0
 10  9  2  0  0  0  0
 10 11  1  0  0  0  0
 11 12  1  0  0  0  0
 12 13  2  0  0  0  0
 12  6  1  0  0  0  0
 14 10  1  0  0  0  0
 15 33  1  0  0  0  0
 15 16  1  0  0  0  0
 16 34  1  6  0  0  0
 16 17  1  0  0  0  0
 16 27  1  0  0  0  0
 17 18  2  0  0  0  0
 18 19  1  0  0  0  0
 18 35  1  0  0  0  0
 19 36  1  0  0  0  0
 20 37  1  0  0  0  0
 20 19  2  0  0  0  0
 21 20  1  0  0  0  0
 22 21  1  0  0  0  0
 22 17  1  0  0  0  0
 23 22  2  0  0  0  0
 24 25  2  0  0  0  0
 24 23  1  0  0  0  0
 25 26  1  0  0  0  0
 26 41  1  0  0  0  0
 26 21  2  0  0  0  0
 27 44  1  0  0  0  0
 27 42  1  0  0  0  0
 30  8  1  0  0  0  0
 31 11  1  0  0  0  0
 32 14  1  0  0  0  0
 38 23  1  0  0  0  0
 39 24  1  0  0  0  0
 40 25  1  0  0  0  0
 43 27  1  0  0  0  0
M  RAD  1   6   2
M  END
