020-069-434.xyz
 OpenBabel07262113413D
O=C(c1ccc2c(c1)nc([nH]c2=O)S)Nc1ccccc1C
 35 37  0  0  1  0  0  0  0  0999 V2000
    4.4055    0.3745    6.2488 O   0  0  0  0  0  0  0  0  0  0  0  0
    3.3752   -0.0086    6.7767 C   0  0  0  0  0  0  0  0  0  0  0  0
    2.0654   -0.0096    6.0261 C   0  0  0  0  0  0  0  0  0  0  0  0
    0.8040    0.0081    6.6644 C   0  0  0  0  0  0  0  0  0  0  0  0
   -0.3583    0.0128    5.9079 C   0  0  0  0  0  0  0  0  0  0  0  0
   -0.2866    0.0021    4.5070 C   0  0  2  0  0  0  0  0  0  0  0  0
    0.9708    0.0011    3.8512 C   0  0  0  0  0  0  0  0  0  0  0  0
    2.1397    0.0032    4.6365 C   0  0  0  0  0  0  0  0  0  0  0  0
    1.0863   -0.0000    2.4739 N   0  0  0  0  0  0  0  0  0  0  0  0
   -0.0000   -0.0000    1.7688 C   0  0  0  0  0  0  0  0  0  0  0  0
   -1.2597   -0.0002    2.3246 N   0  0  0  0  0  0  0  0  0  0  0  0
   -1.5180    0.0018    3.7039 C   0  0  0  0  0  0  0  0  0  0  0  0
   -2.6577    0.0027    4.1248 O   0  0  0  0  0  0  0  0  0  0  0  0
    0.0000    0.0000    0.0000 S   0  0  0  0  0  0  0  0  0  0  0  0
    3.2913   -0.4871    8.0624 N   0  0  0  0  0  0  0  0  0  0  0  0
    4.2993   -0.6043    9.0375 C   0  0  0  0  0  0  0  0  0  0  0  0
    5.6231   -0.1955    8.8069 C   0  0  0  0  0  0  0  0  0  0  0  0
    6.5767   -0.3320    9.8165 C   0  0  0  0  0  0  0  0  0  0  0  0
    6.2298   -0.8731   11.0548 C   0  0  0  0  0  0  0  0  0  0  0  0
    4.9117   -1.2778   11.2778 C   0  0  0  0  0  0  0  0  0  0  0  0
    3.9300   -1.1544   10.2897 C   0  0  0  0  0  0  0  0  0  0  0  0
    2.5109   -1.5907   10.5550 C   0  0  0  0  0  0  0  0  0  0  0  0
    0.7289    0.0565    7.7528 H   0  0  0  0  0  0  0  0  0  0  0  0
   -1.3451    0.0346    6.3740 H   0  0  0  0  0  0  0  0  0  0  0  0
    3.1146    0.0150    4.1496 H   0  0  0  0  0  0  0  0  0  0  0  0
   -2.0824    0.0009    1.7272 H   0  0  0  0  0  0  0  0  0  0  0  0
    2.2940    0.0239   -0.3117 Au  0  0  0  0  0  0  0  0  0  0  0  0
    2.3924   -0.8652    8.3269 H   0  0  0  0  0  0  0  0  0  0  0  0
    5.8831    0.2204    7.8374 H   0  0  0  0  0  0  0  0  0  0  0  0
    7.6031   -0.0101    9.6250 H   0  0  0  0  0  0  0  0  0  0  0  0
    6.9770   -0.9804   11.8440 H   0  0  0  0  0  0  0  0  0  0  0  0
    4.6302   -1.7016   12.2454 H   0  0  0  0  0  0  0  0  0  0  0  0
    1.7963   -0.7534   10.4599 H   0  0  0  0  0  0  0  0  0  0  0  0
    2.4073   -1.9906   11.5728 H   0  0  0  0  0  0  0  0  0  0  0  0
    2.1825   -2.3845    9.8600 H   0  0  0  0  0  0  0  0  0  0  0  0
  1  2  2  0  0  0  0
  2 15  1  0  0  0  0
  3  4  1  0  0  0  0
  3  2  1  0  0  0  0
  4 23  1  0  0  0  0
  5 24  1  0  0  0  0
  5  4  2  0  0  0  0
  6 12  1  6  0  0  0
  6  5  1  0  0  0  0
  7  6  1  0  0  0  0
  7  8  1  0  0  0  0
  8  3  2  0  0  0  0
  9  7  2  0  0  0  0
 10 11  1  0  0  0  0
 10  9  2  0  0  0  0
 11 12  1  0  0  0  0
 12 13  2  0  0  0  0
 14 10  1  0  0  0  0
 15 28  1  0  0  0  0
 15 16  1  0  0  0  0
 16 21  1  0  0  0  0
 17 16  2  0  0  0  0
 17 18  1  0  0  0  0
 18 19  2  0  0  0  0
 19 20  1  0  0  0  0
 19 31  1  0  0  0  0
 20 32  1  0  0  0  0
 21 22  1  0  0  0  0
 21 20  2  0  0  0  0
 22 34  1  0  0  0  0
 25  8  1  0  0  0  0
 26 11  1  0  0  0  0
 27 14  1  0  0  0  0
 29 17  1  0  0  0  0
 30 18  1  0  0  0  0
 33 22  1  0  0  0  0
 35 22  1  0  0  0  0
M  RAD  1   6   2
M  END
