020-069-445.xyz
 OpenBabel07262113413D
Sc1nc2cc(ccc2c(=O)[nH]1)C(=O)Nc1ccc(cc1)C(F)(F)F
 35 37  0  0  1  0  0  0  0  0999 V2000
   10.4564   -0.1130    7.9600 F   0  0  0  0  0  0  0  0  0  0  0  0
    9.7276    0.9523    8.3516 C   0  0  0  0  0  0  0  0  0  0  0  0
    9.7972    0.9982    9.6936 F   0  0  0  0  0  0  0  0  0  0  0  0
   10.3538    2.0446    7.8747 F   0  0  0  0  0  0  0  0  0  0  0  0
    8.3077    0.8656    7.8648 C   0  0  0  0  0  0  0  0  0  0  0  0
    7.9657    1.3704    6.6052 C   0  0  0  0  0  0  0  0  0  0  0  0
    6.6646    1.2414    6.1341 C   0  0  0  0  0  0  0  0  0  0  0  0
    5.6780    0.6069    6.9122 C   0  0  0  0  0  0  0  0  0  0  0  0
    4.3910    0.5087    6.3673 N   0  0  0  0  0  0  0  0  0  0  0  0
    3.2517   -0.0222    6.9332 C   0  0  0  0  0  0  0  0  0  0  0  0
    3.1971   -0.4630    8.0675 O   0  0  0  0  0  0  0  0  0  0  0  0
    2.0393   -0.0039    6.0395 C   0  0  0  0  0  0  0  0  0  0  0  0
    0.7779   -0.0381    6.6720 C   0  0  0  0  0  0  0  0  0  0  0  0
   -0.3791   -0.0301    5.9099 C   0  0  0  0  0  0  0  0  0  0  0  0
   -0.3015   -0.0085    4.5079 C   0  0  1  0  0  0  0  0  0  0  0  0
    0.9562   -0.0000    3.8562 C   0  0  0  0  0  0  0  0  0  0  0  0
    2.1225    0.0022    4.6486 C   0  0  0  0  0  0  0  0  0  0  0  0
    1.0831   -0.0000    2.4797 N   0  0  0  0  0  0  0  0  0  0  0  0
   -0.0000    0.0000    1.7690 C   0  0  0  0  0  0  0  0  0  0  0  0
    0.0000    0.0000    0.0000 S   0  0  0  0  0  0  0  0  0  0  0  0
   -1.2614    0.0011    2.3184 N   0  0  0  0  0  0  0  0  0  0  0  0
   -1.5284   -0.0043    3.6974 C   0  0  0  0  0  0  0  0  0  0  0  0
   -2.6700   -0.0062    4.1102 O   0  0  0  0  0  0  0  0  0  0  0  0
    6.0208    0.1045    8.1805 C   0  0  0  0  0  0  0  0  0  0  0  0
    7.3290    0.2382    8.6415 C   0  0  0  0  0  0  0  0  0  0  0  0
    8.7191    1.8713    5.9953 H   0  0  0  0  0  0  0  0  0  0  0  0
    6.4034    1.6401    5.1499 H   0  0  0  0  0  0  0  0  0  0  0  0
    4.2751    0.9396    5.4586 H   0  0  0  0  0  0  0  0  0  0  0  0
    0.7451   -0.0708    7.7614 H   0  0  0  0  0  0  0  0  0  0  0  0
   -1.3686   -0.0437    6.3706 H   0  0  0  0  0  0  0  0  0  0  0  0
    3.0772   -0.0250    4.1203 H   0  0  0  0  0  0  0  0  0  0  0  0
    2.2843   -0.0542   -0.3490 Au  0  0  0  0  0  0  0  0  0  0  0  0
   -2.0815   -0.0008    1.7171 H   0  0  0  0  0  0  0  0  0  0  0  0
    5.2578   -0.3743    8.7877 H   0  0  0  0  0  0  0  0  0  0  0  0
    7.5889   -0.1472    9.6288 H   0  0  0  0  0  0  0  0  0  0  0  0
  1  2  1  0  0  0  0
  2  3  1  0  0  0  0
  4  2  1  0  0  0  0
  5  2  1  0  0  0  0
  5 25  2  0  0  0  0
  6  5  1  0  0  0  0
  7  6  2  0  0  0  0
  7  8  1  0  0  0  0
  8 24  2  0  0  0  0
  9  8  1  0  0  0  0
  9 10  1  0  0  0  0
 10 11  2  0  0  0  0
 12 13  1  0  0  0  0
 12 10  1  0  0  0  0
 13 29  1  0  0  0  0
 14 30  1  0  0  0  0
 14 13  2  0  0  0  0
 15 22  1  6  0  0  0
 15 14  1  0  0  0  0
 16 15  1  0  0  0  0
 16 17  1  0  0  0  0
 17 12  2  0  0  0  0
 18 16  2  0  0  0  0
 19 21  1  0  0  0  0
 19 18  2  0  0  0  0
 20 19  1  0  0  0  0
 21 22  1  0  0  0  0
 22 23  2  0  0  0  0
 24 25  1  0  0  0  0
 24 34  1  0  0  0  0
 25 35  1  0  0  0  0
 26  6  1  0  0  0  0
 27  7  1  0  0  0  0
 28  9  1  0  0  0  0
 31 17  1  0  0  0  0
 32 20  1  0  0  0  0
 33 21  1  0  0  0  0
M  RAD  1  15   2
M  END
