020-069-440.xyz
 OpenBabel07262113413D
O=C(N1CCCC1c1cccs1)c1ccc2c(c1)nc([nH]c2=O)S
 39 42  0  0  1  0  0  0  0  0999 V2000
   -4.2980   -0.7056    6.3808 O   0  0  0  0  0  0  0  0  0  0  0  0
   -3.3526   -0.0548    6.7976 C   0  0  0  0  0  0  0  0  0  0  0  0
   -3.4143    0.6261    7.9898 N   0  0  0  0  0  0  0  0  0  0  0  0
   -2.6398    1.8218    8.3474 C   0  0  0  0  0  0  0  0  0  0  0  0
   -3.6939    2.7464    8.9622 C   0  0  0  0  0  0  0  0  0  0  0  0
   -4.5980    1.7617    9.7066 C   0  0  0  0  0  0  0  0  0  0  0  0
   -4.6641    0.5377    8.7630 C   0  0  2  0  0  0  0  0  0  0  0  0
   -4.7864   -0.7766    9.4844 C   0  0  0  0  0  0  0  0  0  0  0  0
   -3.7952   -1.6588    9.8355 C   0  0  0  0  0  0  0  0  0  0  0  0
   -4.2818   -2.7801   10.5776 C   0  0  0  0  0  0  0  0  0  0  0  0
   -5.6360   -2.7306   10.7839 C   0  0  0  0  0  0  0  0  0  0  0  0
   -6.3346   -1.3175   10.0636 S   0  0  0  0  0  0  0  0  0  0  0  0
   -2.0590    0.0072    6.0291 C   0  0  0  0  0  0  0  0  0  0  0  0
   -0.7993   -0.0087    6.6673 C   0  0  0  0  0  0  0  0  0  0  0  0
    0.3623   -0.0195    5.9096 C   0  0  0  0  0  0  0  0  0  0  0  0
    0.2891   -0.0051    4.5083 C   0  0  2  0  0  0  0  0  0  0  0  0
   -0.9690   -0.0021    3.8534 C   0  0  0  0  0  0  0  0  0  0  0  0
   -2.1370   -0.0091    4.6397 C   0  0  0  0  0  0  0  0  0  0  0  0
   -1.0854    0.0007    2.4752 N   0  0  0  0  0  0  0  0  0  0  0  0
   -0.0000   -0.0000    1.7699 C   0  0  0  0  0  0  0  0  0  0  0  0
    1.2601   -0.0000    2.3246 N   0  0  0  0  0  0  0  0  0  0  0  0
    1.5193   -0.0031    3.7041 C   0  0  0  0  0  0  0  0  0  0  0  0
    2.6601   -0.0038    4.1227 O   0  0  0  0  0  0  0  0  0  0  0  0
    0.0000    0.0000    0.0000 S   0  0  0  0  0  0  0  0  0  0  0  0
   -1.8567    1.5822    9.0891 H   0  0  0  0  0  0  0  0  0  0  0  0
   -2.1454    2.2483    7.4654 H   0  0  0  0  0  0  0  0  0  0  0  0
   -4.2543    3.2552    8.1609 H   0  0  0  0  0  0  0  0  0  0  0  0
   -3.2552    3.5166    9.6135 H   0  0  0  0  0  0  0  0  0  0  0  0
   -5.5984    2.1561    9.9335 H   0  0  0  0  0  0  0  0  0  0  0  0
   -4.1327    1.4614   10.6584 H   0  0  0  0  0  0  0  0  0  0  0  0
   -5.5104    0.6320    8.0615 H   0  0  0  0  0  0  0  0  0  0  0  0
   -2.7524   -1.5132    9.5530 H   0  0  0  0  0  0  0  0  0  0  0  0
   -3.6499   -3.5934   10.9373 H   0  0  0  0  0  0  0  0  0  0  0  0
   -6.2680   -3.4466   11.3065 H   0  0  0  0  0  0  0  0  0  0  0  0
   -0.7402   -0.0366    7.7559 H   0  0  0  0  0  0  0  0  0  0  0  0
    1.3499   -0.0427    6.3739 H   0  0  0  0  0  0  0  0  0  0  0  0
   -3.1098   -0.0360    4.1487 H   0  0  0  0  0  0  0  0  0  0  0  0
    2.0825   -0.0031    1.7269 H   0  0  0  0  0  0  0  0  0  0  0  0
   -2.2931   -0.0511   -0.3113 Au  0  0  0  0  0  0  0  0  0  0  0  0
  1  2  2  0  0  0  0
  2  3  1  0  0  0  0
  3  4  1  0  0  0  0
  3  7  1  0  0  0  0
  4  5  1  0  0  0  0
  4 25  1  0  0  0  0
  5 28  1  0  0  0  0
  5  6  1  0  0  0  0
  6 29  1  0  0  0  0
  6 30  1  0  0  0  0
  7 31  1  6  0  0  0
  7  8  1  0  0  0  0
  7  6  1  0  0  0  0
  8  9  2  0  0  0  0
  8 12  1  0  0  0  0
  9 10  1  0  0  0  0
 10 11  2  0  0  0  0
 10 33  1  0  0  0  0
 11 34  1  0  0  0  0
 12 11  1  0  0  0  0
 13 14  1  0  0  0  0
 13  2  1  0  0  0  0
 14 35  1  0  0  0  0
 15 36  1  0  0  0  0
 15 14  2  0  0  0  0
 16 22  1  6  0  0  0
 16 15  1  0  0  0  0
 17 16  1  0  0  0  0
 17 18  1  0  0  0  0
 18 13  2  0  0  0  0
 19 17  2  0  0  0  0
 20 21  1  0  0  0  0
 20 19  2  0  0  0  0
 21 22  1  0  0  0  0
 22 23  2  0  0  0  0
 24 20  1  0  0  0  0
 26  4  1  0  0  0  0
 27  5  1  0  0  0  0
 32  9  1  0  0  0  0
 37 18  1  0  0  0  0
 38 21  1  0  0  0  0
 39 24  1  0  0  0  0
M  RAD  1  16   2
M  END
