020-071-068.xyz
 OpenBabel07262113413D
CCn1ccc2c1ccc(c2)NC(=O)c1ccc2c(c1)nc([nH]c2=O)S
 42 45  0  0  1  0  0  0  0  0999 V2000
   10.0814    1.8542   10.4472 C   0  0  0  0  0  0  0  0  0  0  0  0
   10.3411    0.8257    9.3472 C   0  0  0  0  0  0  0  0  0  0  0  0
    9.6343    1.1146    8.1136 N   0  0  0  0  0  0  0  0  0  0  0  0
   10.1495    1.7941    7.0259 C   0  0  0  0  0  0  0  0  0  0  0  0
    9.1735    1.9856    6.0756 C   0  0  0  0  0  0  0  0  0  0  0  0
    7.9680    1.4011    6.5972 C   0  0  0  0  0  0  0  0  0  0  0  0
    8.2929    0.8703    7.8804 C   0  0  0  0  0  0  0  0  0  0  0  0
    7.3313    0.2293    8.6704 C   0  0  0  0  0  0  0  0  0  0  0  0
    6.0352    0.1068    8.1815 C   0  0  0  0  0  0  0  0  0  0  0  0
    5.6949    0.6235    6.9050 C   0  0  0  0  0  0  0  0  0  0  0  0
    6.6558    1.2658    6.1178 C   0  0  0  0  0  0  0  0  0  0  0  0
    4.3932    0.5122    6.3702 N   0  0  0  0  0  0  0  0  0  0  0  0
    3.2642   -0.0231    6.9320 C   0  0  0  0  0  0  0  0  0  0  0  0
    3.1994   -0.4762    8.0644 O   0  0  0  0  0  0  0  0  0  0  0  0
    2.0486   -0.0027    6.0374 C   0  0  0  0  0  0  0  0  0  0  0  0
    0.7874   -0.0371    6.6707 C   0  0  0  0  0  0  0  0  0  0  0  0
   -0.3715   -0.0291    5.9118 C   0  0  0  0  0  0  0  0  0  0  0  0
   -0.2977   -0.0079    4.5092 C   0  0  1  0  0  0  0  0  0  0  0  0
    0.9597    0.0004    3.8568 C   0  0  0  0  0  0  0  0  0  0  0  0
    2.1274    0.0021    4.6463 C   0  0  0  0  0  0  0  0  0  0  0  0
    1.0837    0.0000    2.4790 N   0  0  0  0  0  0  0  0  0  0  0  0
    0.0000    0.0000    1.7705 C   0  0  0  0  0  0  0  0  0  0  0  0
   -1.2607    0.0010    2.3213 N   0  0  0  0  0  0  0  0  0  0  0  0
   -1.5250   -0.0041    3.7013 C   0  0  0  0  0  0  0  0  0  0  0  0
   -2.6673   -0.0058    4.1140 O   0  0  0  0  0  0  0  0  0  0  0  0
    0.0000    0.0000    0.0000 S   0  0  0  0  0  0  0  0  0  0  0  0
   10.6339    1.5885   11.3622 H   0  0  0  0  0  0  0  0  0  0  0  0
   10.4029    2.8572   10.1269 H   0  0  0  0  0  0  0  0  0  0  0  0
    9.0103    1.9044   10.6942 H   0  0  0  0  0  0  0  0  0  0  0  0
   11.4153    0.7755    9.1113 H   0  0  0  0  0  0  0  0  0  0  0  0
   10.0476   -0.1817    9.6849 H   0  0  0  0  0  0  0  0  0  0  0  0
   11.1983    2.0867    7.0161 H   0  0  0  0  0  0  0  0  0  0  0  0
    9.3026    2.4778    5.1143 H   0  0  0  0  0  0  0  0  0  0  0  0
    7.5774   -0.1707    9.6559 H   0  0  0  0  0  0  0  0  0  0  0  0
    5.2614   -0.3787    8.7696 H   0  0  0  0  0  0  0  0  0  0  0  0
    6.3862    1.6613    5.1340 H   0  0  0  0  0  0  0  0  0  0  0  0
    4.2715    0.9461    5.4642 H   0  0  0  0  0  0  0  0  0  0  0  0
    0.7588   -0.0715    7.7602 H   0  0  0  0  0  0  0  0  0  0  0  0
   -1.3598   -0.0427    6.3750 H   0  0  0  0  0  0  0  0  0  0  0  0
    3.0819   -0.0250    4.1177 H   0  0  0  0  0  0  0  0  0  0  0  0
   -2.0818   -0.0006    1.7217 H   0  0  0  0  0  0  0  0  0  0  0  0
    2.2877   -0.0433   -0.3337 Au  0  0  0  0  0  0  0  0  0  0  0  0
  1 29  1  0  0  0  0
  1 27  1  0  0  0  0
  2 31  1  0  0  0  0
  2  1  1  0  0  0  0
  3  2  1  0  0  0  0
  4  3  1  0  0  0  0
  5  6  1  0  0  0  0
  5  4  2  0  0  0  0
  6  7  1  0  0  0  0
  7  3  1  0  0  0  0
  7  8  2  0  0  0  0
  8 34  1  0  0  0  0
  9  8  1  0  0  0  0
  9 35  1  0  0  0  0
 10  9  2  0  0  0  0
 11  6  2  0  0  0  0
 11 10  1  0  0  0  0
 12 10  1  0  0  0  0
 12 13  1  0  0  0  0
 13 14  2  0  0  0  0
 15 16  1  0  0  0  0
 15 13  1  0  0  0  0
 16 38  1  0  0  0  0
 17 39  1  0  0  0  0
 17 16  2  0  0  0  0
 18 24  1  6  0  0  0
 18 17  1  0  0  0  0
 19 18  1  0  0  0  0
 19 20  1  0  0  0  0
 20 15  2  0  0  0  0
 21 19  2  0  0  0  0
 22 23  1  0  0  0  0
 22 21  2  0  0  0  0
 23 24  1  0  0  0  0
 24 25  2  0  0  0  0
 26 22  1  0  0  0  0
 28  1  1  0  0  0  0
 30  2  1  0  0  0  0
 32  4  1  0  0  0  0
 33  5  1  0  0  0  0
 36 11  1  0  0  0  0
 37 12  1  0  0  0  0
 40 20  1  0  0  0  0
 41 23  1  0  0  0  0
 42 26  1  0  0  0  0
M  RAD  1  18   2
M  END
