020-069-436.xyz
 OpenBabel07262113413D
Cc1ccc(c(c1)C)NC(=O)c1ccc2c(c1)nc([nH]c2=O)S
 38 40  0  0  1  0  0  0  0  0999 V2000
    0.7419   -3.5956   10.7851 C   0  0  0  0  0  0  0  0  0  0  0  0
    1.6477   -2.7294    9.9476 C   0  0  0  0  0  0  0  0  0  0  0  0
    2.1432   -1.5146   10.4478 C   0  0  0  0  0  0  0  0  0  0  0  0
    2.9489   -0.7033    9.6561 C   0  0  0  0  0  0  0  0  0  0  0  0
    3.2950   -1.0837    8.3509 C   0  0  0  0  0  0  0  0  0  0  0  0
    4.1237   -0.2128    7.5920 N   0  0  0  0  0  0  0  0  0  0  0  0
    3.9227    0.3345    6.3449 C   0  0  0  0  0  0  0  0  0  0  0  0
    4.8364    0.8735    5.7442 O   0  0  0  0  0  0  0  0  0  0  0  0
    2.5386    0.2691    5.7529 C   0  0  0  0  0  0  0  0  0  0  0  0
    1.3621    0.3639    6.5281 C   0  0  0  0  0  0  0  0  0  0  0  0
    0.1201    0.3405    5.9094 C   0  0  0  0  0  0  0  0  0  0  0  0
    0.0281    0.2171    4.5155 C   0  0  2  0  0  0  0  0  0  0  0  0
    1.2026    0.1362    3.7241 C   0  0  0  0  0  0  0  0  0  0  0  0
    2.4542    0.1795    4.3655 C   0  0  0  0  0  0  0  0  0  0  0  0
    1.1547   -0.0000    2.3477 N   0  0  0  0  0  0  0  0  0  0  0  0
   -0.0000   -0.0000    1.7776 C   0  0  0  0  0  0  0  0  0  0  0  0
    0.0000    0.0000    0.0000 S   0  0  0  0  0  0  0  0  0  0  0  0
   -1.1900    0.0885    2.4623 N   0  0  0  0  0  0  0  0  0  0  0  0
   -1.2879    0.1872    3.8578 C   0  0  0  0  0  0  0  0  0  0  0  0
   -2.3719    0.2498    4.4043 O   0  0  0  0  0  0  0  0  0  0  0  0
    2.8476   -2.3173    7.8373 C   0  0  0  0  0  0  0  0  0  0  0  0
    3.2389   -2.8056    6.4681 C   0  0  0  0  0  0  0  0  0  0  0  0
    2.0179   -3.1036    8.6517 C   0  0  0  0  0  0  0  0  0  0  0  0
   -0.2588   -3.1414   10.8842 H   0  0  0  0  0  0  0  0  0  0  0  0
    0.6113   -4.5929   10.3405 H   0  0  0  0  0  0  0  0  0  0  0  0
    1.1394   -3.7246   11.8044 H   0  0  0  0  0  0  0  0  0  0  0  0
    1.8860   -1.1981   11.4621 H   0  0  0  0  0  0  0  0  0  0  0  0
    3.3144    0.2538   10.0357 H   0  0  0  0  0  0  0  0  0  0  0  0
    5.0506   -0.0091    7.9581 H   0  0  0  0  0  0  0  0  0  0  0  0
    1.4237    0.4644    7.6104 H   0  0  0  0  0  0  0  0  0  0  0  0
   -0.8045    0.4180    6.4839 H   0  0  0  0  0  0  0  0  0  0  0  0
    3.3611    0.1383    3.7626 H   0  0  0  0  0  0  0  0  0  0  0  0
   -1.9038   -1.1569   -0.5844 Au  0  0  0  0  0  0  0  0  0  0  0  0
   -2.0684    0.1187    1.9530 H   0  0  0  0  0  0  0  0  0  0  0  0
    4.2471   -2.4661    6.1903 H   0  0  0  0  0  0  0  0  0  0  0  0
    2.5498   -2.4325    5.6933 H   0  0  0  0  0  0  0  0  0  0  0  0
    3.2187   -3.9043    6.4283 H   0  0  0  0  0  0  0  0  0  0  0  0
    1.6626   -4.0599    8.2569 H   0  0  0  0  0  0  0  0  0  0  0  0
  1 24  1  0  0  0  0
  1 26  1  0  0  0  0
  2  3  1  0  0  0  0
  2  1  1  0  0  0  0
  3 27  1  0  0  0  0
  4 28  1  0  0  0  0
  4  3  2  0  0  0  0
  5  4  1  0  0  0  0
  6 29  1  0  0  0  0
  6  5  1  0  0  0  0
  7  6  1  0  0  0  0
  8  7  2  0  0  0  0
  9  7  1  0  0  0  0
  9 10  1  0  0  0  0
 10 30  1  0  0  0  0
 11 31  1  0  0  0  0
 11 10  2  0  0  0  0
 12 13  1  6  0  0  0
 12 11  1  0  0  0  0
 13 14  1  0  0  0  0
 14  9  2  0  0  0  0
 15 13  2  0  0  0  0
 16 15  2  0  0  0  0
 16 18  1  0  0  0  0
 17 16  1  0  0  0  0
 18 19  1  0  0  0  0
 19 20  2  0  0  0  0
 19 12  1  0  0  0  0
 21  5  2  0  0  0  0
 21 23  1  0  0  0  0
 22 21  1  0  0  0  0
 23  2  2  0  0  0  0
 25  1  1  0  0  0  0
 32 14  1  0  0  0  0
 33 17  1  0  0  0  0
 34 18  1  0  0  0  0
 35 22  1  0  0  0  0
 36 22  1  0  0  0  0
 37 22  1  0  0  0  0
 38 23  1  0  0  0  0
M  RAD  1  12   2
M  END
