020-065-386.xyz
 OpenBabel07262113413D
O=C(c1ccc2c(c1)nc([nH]c2=O)S)NC1CCN(CC1)c1ccccc1
 47 50  0  0  1  0  0  0  0  0999 V2000
   -4.9040    0.2112    5.7512 O   0  0  0  0  0  0  0  0  0  0  0  0
   -3.9068    0.6048    6.3381 C   0  0  0  0  0  0  0  0  0  0  0  0
   -2.5297    0.4745    5.7380 C   0  0  0  0  0  0  0  0  0  0  0  0
   -1.3527    0.4500    6.5188 C   0  0  0  0  0  0  0  0  0  0  0  0
   -0.1129    0.3191    5.9098 C   0  0  0  0  0  0  0  0  0  0  0  0
   -0.0251    0.2113    4.5143 C   0  0  2  0  0  0  0  0  0  0  0  0
   -1.1996    0.2168    3.7183 C   0  0  0  0  0  0  0  0  0  0  0  0
   -2.4489    0.3415    4.3549 C   0  0  0  0  0  0  0  0  0  0  0  0
   -1.1543    0.0833    2.3424 N   0  0  0  0  0  0  0  0  0  0  0  0
    0.0000    0.0000    1.7772 C   0  0  0  0  0  0  0  0  0  0  0  0
    1.1902    0.0000    2.4665 N   0  0  0  0  0  0  0  0  0  0  0  0
    1.2884    0.0884    3.8625 C   0  0  0  0  0  0  0  0  0  0  0  0
    2.3712    0.0724    4.4146 O   0  0  0  0  0  0  0  0  0  0  0  0
    0.0000    0.0000    0.0000 S   0  0  0  0  0  0  0  0  0  0  0  0
   -3.9698    1.1964    7.5657 N   0  0  0  0  0  0  0  0  0  0  0  0
   -5.2388    1.3952    8.2475 C   0  0  0  0  0  0  0  0  0  0  0  0
   -5.7762    0.1072    8.8843 C   0  0  0  0  0  0  0  0  0  0  0  0
   -7.2020    0.3408    9.3993 C   0  0  0  0  0  0  0  0  0  0  0  0
   -7.3309    1.6671    9.9879 N   0  0  0  0  0  0  0  0  0  0  0  0
   -6.0910    2.2447   10.4696 C   0  0  0  0  0  0  0  0  0  0  0  0
   -5.1184    2.5058    9.3088 C   0  0  0  0  0  0  0  0  0  0  0  0
   -8.5832    2.1918   10.2774 C   0  0  0  0  0  0  0  0  0  0  0  0
   -8.7587    3.5414   10.6671 C   0  0  0  0  0  0  0  0  0  0  0  0
  -10.0260    4.0529   10.9344 C   0  0  0  0  0  0  0  0  0  0  0  0
  -11.1680    3.2540   10.8184 C   0  0  0  0  0  0  0  0  0  0  0  0
  -11.0095    1.9236   10.4276 C   0  0  0  0  0  0  0  0  0  0  0  0
   -9.7456    1.3933   10.1648 C   0  0  0  0  0  0  0  0  0  0  0  0
   -1.4118    0.4989    7.6080 H   0  0  0  0  0  0  0  0  0  0  0  0
    0.8112    0.2897    6.4899 H   0  0  0  0  0  0  0  0  0  0  0  0
   -3.3596    0.3315    3.7562 H   0  0  0  0  0  0  0  0  0  0  0  0
    2.0709   -0.0356    1.9614 H   0  0  0  0  0  0  0  0  0  0  0  0
    1.8674   -1.2080   -0.5955 Au  0  0  0  0  0  0  0  0  0  0  0  0
   -3.1369    1.6143    7.9587 H   0  0  0  0  0  0  0  0  0  0  0  0
   -5.9709    1.6976    7.4814 H   0  0  0  0  0  0  0  0  0  0  0  0
   -5.1002   -0.2115    9.6950 H   0  0  0  0  0  0  0  0  0  0  0  0
   -5.7894   -0.6954    8.1345 H   0  0  0  0  0  0  0  0  0  0  0  0
   -7.9038    0.2670    8.5517 H   0  0  0  0  0  0  0  0  0  0  0  0
   -7.4825   -0.4592   10.1153 H   0  0  0  0  0  0  0  0  0  0  0  0
   -6.2924    3.1681   11.0209 H   0  0  0  0  0  0  0  0  0  0  0  0
   -5.6210    1.5563   11.1988 H   0  0  0  0  0  0  0  0  0  0  0  0
   -5.3158    3.4857    8.8475 H   0  0  0  0  0  0  0  0  0  0  0  0
   -4.0903    2.5361    9.7121 H   0  0  0  0  0  0  0  0  0  0  0  0
   -7.9004    4.2096   10.7399 H   0  0  0  0  0  0  0  0  0  0  0  0
  -10.1205    5.1017   11.2284 H   0  0  0  0  0  0  0  0  0  0  0  0
  -12.1590    3.6623   11.0259 H   0  0  0  0  0  0  0  0  0  0  0  0
  -11.8837    1.2743   10.3313 H   0  0  0  0  0  0  0  0  0  0  0  0
   -9.6660    0.3447    9.8825 H   0  0  0  0  0  0  0  0  0  0  0  0
  1  2  2  0  0  0  0
  2 15  1  0  0  0  0
  3  2  1  0  0  0  0
  3  4  1  0  0  0  0
  4 28  1  0  0  0  0
  5 29  1  0  0  0  0
  5  4  2  0  0  0  0
  6  7  1  1  0  0  0
  6  5  1  0  0  0  0
  7  8  1  0  0  0  0
  8  3  2  0  0  0  0
  9  7  2  0  0  0  0
 10  9  2  0  0  0  0
 10 11  1  0  0  0  0
 11 12  1  0  0  0  0
 12 13  2  0  0  0  0
 12  6  1  0  0  0  0
 14 10  1  0  0  0  0
 15 33  1  0  0  0  0
 15 16  1  0  0  0  0
 16 17  1  0  0  0  0
 16 21  1  0  0  0  0
 17 18  1  0  0  0  0
 17 35  1  0  0  0  0
 18 19  1  0  0  0  0
 18 38  1  0  0  0  0
 19 22  1  0  0  0  0
 19 20  1  0  0  0  0
 20 39  1  0  0  0  0
 20 40  1  0  0  0  0
 21 42  1  0  0  0  0
 21 20  1  0  0  0  0
 22 23  1  0  0  0  0
 23 43  1  0  0  0  0
 23 24  2  0  0  0  0
 24 44  1  0  0  0  0
 25 24  1  0  0  0  0
 25 45  1  0  0  0  0
 26 25  2  0  0  0  0
 27 22  2  0  0  0  0
 27 26  1  0  0  0  0
 30  8  1  0  0  0  0
 31 11  1  0  0  0  0
 32 14  1  0  0  0  0
 34 16  1  0  0  0  0
 36 17  1  0  0  0  0
 37 18  1  0  0  0  0
 41 21  1  0  0  0  0
 46 26  1  0  0  0  0
 47 27  1  0  0  0  0
M  RAD  1   6   2
M  END
