021-780-188.xyz
 OpenBabel07262113413D
Nc1ccc(c(c1)S)C(=O)O
 18 18  0  0  0  0  0  0  0  0999 V2000
    2.7578   -0.1231    4.2617 N   0  0  0  0  0  0  0  0  0  0  0  0
    1.4902   -0.1574    3.7365 C   0  0  0  0  0  0  0  0  0  0  0  0
    0.3593   -0.3036    4.5663 C   0  0  0  0  0  0  0  0  0  0  0  0
   -0.9108   -0.2962    4.0133 C   0  0  0  0  0  0  0  0  0  0  0  0
   -1.1373   -0.1444    2.6305 C   0  0  0  0  0  0  0  0  0  0  0  0
    0.0000    0.0000    1.7851 C   0  0  0  0  0  0  0  0  0  0  0  0
    1.2796    0.0000    2.3531 C   0  0  0  0  0  0  0  0  0  0  0  0
    0.0000    0.0000    0.0000 S   0  0  0  0  0  0  0  0  0  0  0  0
   -2.5352   -0.1335    2.1455 C   0  0  0  0  0  0  0  0  0  0  0  0
   -2.9381    0.2352    1.0619 O   0  0  0  0  0  0  0  0  0  0  0  0
   -3.4122   -0.5805    3.0810 O   0  0  0  0  0  0  0  0  0  0  0  0
    3.5442   -0.2357    3.6355 H   0  0  0  0  0  0  0  0  0  0  0  0
    2.9002   -0.4563    5.2059 H   0  0  0  0  0  0  0  0  0  0  0  0
    0.4865   -0.4172    5.6457 H   0  0  0  0  0  0  0  0  0  0  0  0
   -1.7751   -0.4119    4.6663 H   0  0  0  0  0  0  0  0  0  0  0  0
    2.1373    0.1284    1.6898 H   0  0  0  0  0  0  0  0  0  0  0  0
   -1.1937    1.8940   -0.5616 Au  0  0  0  0  0  0  0  0  0  0  0  0
   -4.2891   -0.4988    2.6716 H   0  0  0  0  0  0  0  0  0  0  0  0
  1 13  1  0  0  0  0
  2  1  1  0  0  0  0
  2  3  2  0  0  0  0
  3 14  1  0  0  0  0
  4  3  1  0  0  0  0
  4 15  1  0  0  0  0
  5  4  2  0  0  0  0
  6  7  2  0  0  0  0
  6  5  1  0  0  0  0
  7  2  1  0  0  0  0
  8  6  1  0  0  0  0
  9  5  1  0  0  0  0
  9 11  1  0  0  0  0
 10  9  2  0  0  0  0
 12  1  1  0  0  0  0
 16  7  1  0  0  0  0
 17  8  1  0  0  0  0
 18 11  1  0  0  0  0
M  END
