022-375-632.xyz
 OpenBabel07262113413D
COc1cc(S)c(cc1OC)N
 23 23  0  0  0  0  0  0  0  0999 V2000
   -1.0134   -0.2733    6.6945 C   0  0  0  0  0  0  0  0  0  0  0  0
    0.1521   -0.2180    5.9058 O   0  0  0  0  0  0  0  0  0  0  0  0
    0.0347   -0.1402    4.5657 C   0  0  0  0  0  0  0  0  0  0  0  0
   -1.1769   -0.1136    3.8819 C   0  0  0  0  0  0  0  0  0  0  0  0
   -1.2231   -0.0342    2.4721 C   0  0  0  0  0  0  0  0  0  0  0  0
   -2.4213    0.0792    1.8151 N   0  0  0  0  0  0  0  0  0  0  0  0
    0.0000    0.0000    1.7529 C   0  0  0  0  0  0  0  0  0  0  0  0
    0.0000    0.0000    0.0000 S   0  0  0  0  0  0  0  0  0  0  0  0
    1.2248    0.0000    2.4627 C   0  0  0  0  0  0  0  0  0  0  0  0
    1.2664   -0.0777    3.8441 C   0  0  0  0  0  0  0  0  0  0  0  0
    2.3935   -0.1037    4.6002 O   0  0  0  0  0  0  0  0  0  0  0  0
    3.6330   -0.0220    3.9415 C   0  0  0  0  0  0  0  0  0  0  0  0
   -0.6812   -0.3320    7.7391 H   0  0  0  0  0  0  0  0  0  0  0  0
   -1.6375    0.6291    6.5647 H   0  0  0  0  0  0  0  0  0  0  0  0
   -1.6236   -1.1640    6.4597 H   0  0  0  0  0  0  0  0  0  0  0  0
   -2.1168   -0.1402    4.4325 H   0  0  0  0  0  0  0  0  0  0  0  0
   -3.2624   -0.2109    2.2965 H   0  0  0  0  0  0  0  0  0  0  0  0
   -2.3901   -0.0873    0.8130 H   0  0  0  0  0  0  0  0  0  0  0  0
   -0.5883    2.1864   -0.5675 Au  0  0  0  0  0  0  0  0  0  0  0  0
    2.1421    0.0498    1.8785 H   0  0  0  0  0  0  0  0  0  0  0  0
    4.4065   -0.0491    4.7205 H   0  0  0  0  0  0  0  0  0  0  0  0
    3.7320    0.9179    3.3675 H   0  0  0  0  0  0  0  0  0  0  0  0
    3.7884   -0.8712    3.2505 H   0  0  0  0  0  0  0  0  0  0  0  0
  1 13  1  0  0  0  0
  2  1  1  0  0  0  0
  3  2  1  0  0  0  0
  4 16  1  0  0  0  0
  4  3  1  0  0  0  0
  5  4  2  0  0  0  0
  6 17  1  0  0  0  0
  6  5  1  0  0  0  0
  7  9  2  0  0  0  0
  7  5  1  0  0  0  0
  8  7  1  0  0  0  0
  9 10  1  0  0  0  0
 10  3  2  0  0  0  0
 10 11  1  0  0  0  0
 12 11  1  0  0  0  0
 12 21  1  0  0  0  0
 14  1  1  0  0  0  0
 15  1  1  0  0  0  0
 18  6  1  0  0  0  0
 19  8  1  0  0  0  0
 20  9  1  0  0  0  0
 22 12  1  0  0  0  0
 23 12  1  0  0  0  0
M  END
