022-368-092.xyz
 OpenBabel07262113413D
Cc1cc(S)c(cc1C)N
 21 21  0  0  0  0  0  0  0  0999 V2000
   -2.5932   -0.2365    4.5733 C   0  0  0  0  0  0  0  0  0  0  0  0
   -1.2712   -0.1548    3.8548 C   0  0  0  0  0  0  0  0  0  0  0  0
   -1.2154   -0.0585    2.4679 C   0  0  0  0  0  0  0  0  0  0  0  0
   -0.0000   -0.0000    1.7615 C   0  0  0  0  0  0  0  0  0  0  0  0
    0.0000    0.0000    0.0000 S   0  0  0  0  0  0  0  0  0  0  0  0
    1.2245    0.0000    2.4850 C   0  0  0  0  0  0  0  0  0  0  0  0
    1.1616   -0.0931    3.8898 C   0  0  0  0  0  0  0  0  0  0  0  0
   -0.0477   -0.1736    4.5764 C   0  0  0  0  0  0  0  0  0  0  0  0
   -0.0583   -0.2757    6.0784 C   0  0  0  0  0  0  0  0  0  0  0  0
    2.4202    0.1505    1.8320 N   0  0  0  0  0  0  0  0  0  0  0  0
   -2.7242    0.5945    5.2874 H   0  0  0  0  0  0  0  0  0  0  0  0
   -3.4320   -0.2017    3.8634 H   0  0  0  0  0  0  0  0  0  0  0  0
   -2.6868   -1.1685    5.1568 H   0  0  0  0  0  0  0  0  0  0  0  0
   -2.1407   -0.0372    1.8876 H   0  0  0  0  0  0  0  0  0  0  0  0
    0.6240    2.1750   -0.5377 Au  0  0  0  0  0  0  0  0  0  0  0  0
    2.0976   -0.0969    4.4561 H   0  0  0  0  0  0  0  0  0  0  0  0
    0.9603   -0.2801    6.4914 H   0  0  0  0  0  0  0  0  0  0  0  0
   -0.5664   -1.1953    6.4144 H   0  0  0  0  0  0  0  0  0  0  0  0
   -0.6066    0.5662    6.5335 H   0  0  0  0  0  0  0  0  0  0  0  0
    2.4084   -0.0358    0.8334 H   0  0  0  0  0  0  0  0  0  0  0  0
    3.2687   -0.0904    2.3277 H   0  0  0  0  0  0  0  0  0  0  0  0
  1 13  1  0  0  0  0
  1 11  1  0  0  0  0
  2  1  1  0  0  0  0
  2  8  2  0  0  0  0
  3  2  1  0  0  0  0
  4  3  2  0  0  0  0
  4  6  1  0  0  0  0
  5  4  1  0  0  0  0
  6  7  2  0  0  0  0
  7 16  1  0  0  0  0
  7  8  1  0  0  0  0
  8  9  1  0  0  0  0
  9 18  1  0  0  0  0
  9 17  1  0  0  0  0
  9 19  1  0  0  0  0
 10 21  1  0  0  0  0
 10  6  1  0  0  0  0
 12  1  1  0  0  0  0
 14  3  1  0  0  0  0
 15  5  1  0  0  0  0
 20 10  1  0  0  0  0
M  END
