023-170-453.xyz
 OpenBabel07262113413D
CC(C1SCCN(C1)C(=O)c1cccnc1S)C
 36 37  0  0  1  0  0  0  0  0999 V2000
   -7.6765   -2.8927    1.8344 C   0  0  0  0  0  0  0  0  0  0  0  0
   -6.5846   -2.3945    0.8831 C   0  0  0  0  0  0  0  0  0  0  0  0
   -6.4013   -3.3624   -0.2903 C   0  0  0  0  0  0  0  0  0  0  0  0
   -5.2800   -2.1007    1.6504 C   0  0  2  0  0  0  0  0  0  0  0  0
   -4.2579   -1.3223    0.8120 C   0  0  0  0  0  0  0  0  0  0  0  0
   -2.9547   -1.2482    1.4507 N   0  0  0  0  0  0  0  0  0  0  0  0
   -2.1441   -2.4672    1.4767 C   0  0  0  0  0  0  0  0  0  0  0  0
   -3.0216   -3.7092    1.3209 C   0  0  0  0  0  0  0  0  0  0  0  0
   -4.5037   -3.6270    2.3838 S   0  0  0  0  0  0  0  0  0  0  0  0
   -2.5594   -0.0702    2.0029 C   0  0  0  0  0  0  0  0  0  0  0  0
   -3.2746    0.9310    2.0334 O   0  0  0  0  0  0  0  0  0  0  0  0
   -1.1730   -0.0365    2.5850 C   0  0  2  0  0  0  0  0  0  0  0  0
   -1.0229    0.0305    3.9720 C   0  0  0  0  0  0  0  0  0  0  0  0
    0.2569    0.0418    4.5276 C   0  0  0  0  0  0  0  0  0  0  0  0
    1.3479   -0.0052    3.6564 C   0  0  0  0  0  0  0  0  0  0  0  0
    1.2186    0.0000    2.3299 N   0  0  0  0  0  0  0  0  0  0  0  0
    0.0000    0.0000    1.7931 C   0  0  0  0  0  0  0  0  0  0  0  0
    0.0000    0.0000    0.0000 S   0  0  0  0  0  0  0  0  0  0  0  0
   -7.3894   -3.8589    2.2804 H   0  0  0  0  0  0  0  0  0  0  0  0
   -7.8522   -2.1787    2.6549 H   0  0  0  0  0  0  0  0  0  0  0  0
   -8.6286   -3.0386    1.3009 H   0  0  0  0  0  0  0  0  0  0  0  0
   -6.9111   -1.4180    0.4758 H   0  0  0  0  0  0  0  0  0  0  0  0
   -5.6796   -2.9918   -1.0346 H   0  0  0  0  0  0  0  0  0  0  0  0
   -7.3575   -3.5188   -0.8131 H   0  0  0  0  0  0  0  0  0  0  0  0
   -6.0485   -4.3405    0.0727 H   0  0  0  0  0  0  0  0  0  0  0  0
   -5.5260   -1.4800    2.5254 H   0  0  0  0  0  0  0  0  0  0  0  0
   -4.1393   -1.7720   -0.1849 H   0  0  0  0  0  0  0  0  0  0  0  0
   -4.6179   -0.2946    0.6792 H   0  0  0  0  0  0  0  0  0  0  0  0
   -1.6157   -2.5159    2.4380 H   0  0  0  0  0  0  0  0  0  0  0  0
   -1.3841   -2.4361    0.6745 H   0  0  0  0  0  0  0  0  0  0  0  0
   -3.3193   -3.8731    0.2750 H   0  0  0  0  0  0  0  0  0  0  0  0
   -2.4618   -4.6004    1.6381 H   0  0  0  0  0  0  0  0  0  0  0  0
   -1.9120    0.0519    4.6067 H   0  0  0  0  0  0  0  0  0  0  0  0
    0.4061    0.0805    5.6081 H   0  0  0  0  0  0  0  0  0  0  0  0
    2.3719   -0.0302    4.0461 H   0  0  0  0  0  0  0  0  0  0  0  0
   -1.7078    1.4782   -0.4892 Au  0  0  0  0  0  0  0  0  0  0  0  0
  1 19  1  0  0  0  0
  1 20  1  0  0  0  0
  2  4  1  0  0  0  0
  2  1  1  0  0  0  0
  3 25  1  0  0  0  0
  3  2  1  0  0  0  0
  4  9  1  0  0  0  0
  4 26  1  1  0  0  0
  5  6  1  0  0  0  0
  5  4  1  0  0  0  0
  6  7  1  0  0  0  0
  6 10  1  0  0  0  0
  7 29  1  0  0  0  0
  8  7  1  0  0  0  0
  8 32  1  0  0  0  0
  8  9  1  0  0  0  0
 10 11  2  0  0  0  0
 12 10  1  6  0  0  0
 12 13  1  0  0  0  0
 13 14  2  0  0  0  0
 13 33  1  0  0  0  0
 14 34  1  0  0  0  0
 15 35  1  0  0  0  0
 15 14  1  0  0  0  0
 16 15  2  0  0  0  0
 17 16  2  0  0  0  0
 17 12  1  0  0  0  0
 18 17  1  0  0  0  0
 21  1  1  0  0  0  0
 22  2  1  0  0  0  0
 23  3  1  0  0  0  0
 24  3  1  0  0  0  0
 27  5  1  0  0  0  0
 28  5  1  0  0  0  0
 30  7  1  0  0  0  0
 31  8  1  0  0  0  0
 36 18  1  0  0  0  0
M  RAD  1  12   2
M  END
