024-707-327.xyz
 OpenBabel07262113413D
Sc1cc(F)c(cc1N)Br
 15 15  0  0  0  0  0  0  0  0999 V2000
    0.0000    0.0000    0.0000 S   0  0  0  0  0  0  0  0  0  0  0  0
   -0.0000    0.0000    1.7640 C   0  0  0  0  0  0  0  0  0  0  0  0
    1.2206    0.0000    2.4604 C   0  0  0  0  0  0  0  0  0  0  0  0
    1.2496   -0.0905    3.8420 C   0  0  0  0  0  0  0  0  0  0  0  0
    2.4223   -0.1052    4.4853 F   0  0  0  0  0  0  0  0  0  0  0  0
    0.0482   -0.1644    4.5625 C   0  0  0  0  0  0  0  0  0  0  0  0
   -1.1723   -0.1461    3.8946 C   0  0  0  0  0  0  0  0  0  0  0  0
   -1.2264   -0.0613    2.4891 C   0  0  0  0  0  0  0  0  0  0  0  0
   -2.4261    0.0260    1.8303 N   0  0  0  0  0  0  0  0  0  0  0  0
    0.1042   -0.2871    6.4511 Br  0  0  0  0  0  0  0  0  0  0  0  0
   -0.7808    2.1283   -0.5093 Au  0  0  0  0  0  0  0  0  0  0  0  0
    2.1611    0.0641    1.9116 H   0  0  0  0  0  0  0  0  0  0  0  0
   -2.0967   -0.1959    4.4723 H   0  0  0  0  0  0  0  0  0  0  0  0
   -3.2627   -0.2549    2.3257 H   0  0  0  0  0  0  0  0  0  0  0  0
   -2.4004   -0.1829    0.8362 H   0  0  0  0  0  0  0  0  0  0  0  0
  1  2  1  0  0  0  0
  2  3  2  0  0  0  0
  2  8  1  0  0  0  0
  3  4  1  0  0  0  0
  4  5  1  0  0  0  0
  4  6  2  0  0  0  0
  6 10  1  0  0  0  0
  7 13  1  0  0  0  0
  7  6  1  0  0  0  0
  8  7  2  0  0  0  0
  9 14  1  0  0  0  0
  9  8  1  0  0  0  0
 11  1  1  0  0  0  0
 12  3  1  0  0  0  0
 15  9  1  0  0  0  0
M  END
