027-688-322.xyz
 OpenBabel07262113413D
Sc1nc2ccccc2c(=O)n1c1ccc(cc1)c1nccs1
 34 37  0  0  1  0  0  0  0  0999 V2000
    0.0000    0.0000    0.0000 S   0  0  0  0  0  0  0  0  0  0  0  0
    0.0000   -0.0000    1.7771 C   0  0  0  0  0  0  0  0  0  0  0  0
    1.0936   -0.0000    2.4676 N   0  0  0  0  0  0  0  0  0  0  0  0
    1.0091    0.0024    3.8451 C   0  0  0  0  0  0  0  0  0  0  0  0
    2.1945    0.0002    4.6113 C   0  0  0  0  0  0  0  0  0  0  0  0
    2.1298    0.0032    5.9975 C   0  0  0  0  0  0  0  0  0  0  0  0
    0.8883    0.0089    6.6625 C   0  0  0  0  0  0  0  0  0  0  0  0
   -0.2871    0.0114    5.9245 C   0  0  0  0  0  0  0  0  0  0  0  0
   -0.2349    0.0080    4.5202 C   0  0  2  0  0  0  0  0  0  0  0  0
   -1.4781    0.0102    3.7430 C   0  0  0  0  0  0  0  0  0  0  0  0
   -2.6050    0.0177    4.1954 O   0  0  0  0  0  0  0  0  0  0  0  0
   -1.2689    0.0020    2.3371 N   0  0  0  0  0  0  0  0  0  0  0  0
   -2.4375   -0.0028    1.4984 C   0  0  0  0  0  0  0  0  0  0  0  0
   -3.0221    1.2071    1.1161 C   0  0  0  0  0  0  0  0  0  0  0  0
   -4.1504    1.2007    0.3022 C   0  0  0  0  0  0  0  0  0  0  0  0
   -4.7108   -0.0124   -0.1342 C   0  0  0  0  0  0  0  0  0  0  0  0
   -4.1170   -1.2231    0.2681 C   0  0  0  0  0  0  0  0  0  0  0  0
   -2.9902   -1.2180    1.0820 C   0  0  0  0  0  0  0  0  0  0  0  0
   -5.8979   -0.0579   -0.9957 C   0  0  0  0  0  0  0  0  0  0  0  0
   -6.4471   -1.1612   -1.4329 N   0  0  0  0  0  0  0  0  0  0  0  0
   -7.5387   -0.9142   -2.2138 C   0  0  0  0  0  0  0  0  0  0  0  0
   -7.8531    0.4094   -2.3941 C   0  0  0  0  0  0  0  0  0  0  0  0
   -6.7242    1.4007   -1.5413 S   0  0  0  0  0  0  0  0  0  0  0  0
    2.2910    0.0015   -0.3256 Au  0  0  0  0  0  0  0  0  0  0  0  0
    3.1491   -0.0041    4.0828 H   0  0  0  0  0  0  0  0  0  0  0  0
    3.0544    0.0013    6.5802 H   0  0  0  0  0  0  0  0  0  0  0  0
    0.8531    0.0112    7.7540 H   0  0  0  0  0  0  0  0  0  0  0  0
   -1.2684    0.0156    6.4024 H   0  0  0  0  0  0  0  0  0  0  0  0
   -2.5841    2.1463    1.4567 H   0  0  0  0  0  0  0  0  0  0  0  0
   -4.5985    2.1515    0.0049 H   0  0  0  0  0  0  0  0  0  0  0  0
   -4.5621   -2.1584   -0.0723 H   0  0  0  0  0  0  0  0  0  0  0  0
   -2.5252   -2.1533    1.3975 H   0  0  0  0  0  0  0  0  0  0  0  0
   -8.0952   -1.7476   -2.6461 H   0  0  0  0  0  0  0  0  0  0  0  0
   -8.6693    0.8427   -2.9687 H   0  0  0  0  0  0  0  0  0  0  0  0
  1  2  1  0  0  0  0
  2 12  1  0  0  0  0
  2  3  2  0  0  0  0
  3  4  2  0  0  0  0
  4  9  1  0  0  0  0
  4  5  1  0  0  0  0
  5  6  2  0  0  0  0
  6 26  1  0  0  0  0
  6  7  1  0  0  0  0
  7 27  1  0  0  0  0
  8 28  1  0  0  0  0
  8  7  2  0  0  0  0
  9 10  1  1  0  0  0
  9  8  1  0  0  0  0
 10 11  2  0  0  0  0
 12 10  1  0  0  0  0
 13 12  1  0  0  0  0
 14 29  1  0  0  0  0
 14 13  1  0  0  0  0
 15 14  2  0  0  0  0
 16 17  2  0  0  0  0
 16 15  1  0  0  0  0
 17 18  1  0  0  0  0
 18 32  1  0  0  0  0
 18 13  2  0  0  0  0
 19 16  1  0  0  0  0
 20 19  2  0  0  0  0
 21 20  2  0  0  0  0
 22 21  1  0  0  0  0
 22 23  1  0  0  0  0
 23 19  1  0  0  0  0
 24  1  1  0  0  0  0
 25  5  1  0  0  0  0
 30 15  1  0  0  0  0
 31 17  1  0  0  0  0
 33 21  1  0  0  0  0
 34 22  1  0  0  0  0
M  RAD  2   9   2  22   2
M  END
