027-941-763.xyz
 OpenBabel07262113413D
Oc1ccc(cc1)CN(C(=O)c1ccc2c(c1)nc([nH]c2=O)S)C
 39 41  0  0  1  0  0  0  0  0999 V2000
    2.9339   -1.8695   13.5334 O   0  0  0  0  0  0  0  0  0  0  0  0
    3.3609   -1.3172   12.3689 C   0  0  0  0  0  0  0  0  0  0  0  0
    3.4424   -2.0454   11.1722 C   0  0  0  0  0  0  0  0  0  0  0  0
    3.8902   -1.4286   10.0051 C   0  0  0  0  0  0  0  0  0  0  0  0
    4.2642   -0.0758   10.0030 C   0  0  0  0  0  0  0  0  0  0  0  0
    4.1757    0.6392   11.2049 C   0  0  0  0  0  0  0  0  0  0  0  0
    3.7324    0.0332   12.3804 C   0  0  0  0  0  0  0  0  0  0  0  0
    4.6949    0.5850    8.7129 C   0  0  0  0  0  0  0  0  0  0  0  0
    3.5637    0.8183    7.8110 N   0  0  0  0  0  0  0  0  0  0  0  0
    3.3378   -0.0985    6.8189 C   0  0  0  0  0  0  0  0  0  0  0  0
    4.1223   -1.0058    6.5696 O   0  0  0  0  0  0  0  0  0  0  0  0
    2.0576    0.0091    6.0286 C   0  0  0  0  0  0  0  0  0  0  0  0
    0.7981   -0.0047    6.6676 C   0  0  0  0  0  0  0  0  0  0  0  0
   -0.3633   -0.0167    5.9098 C   0  0  0  0  0  0  0  0  0  0  0  0
   -0.2900   -0.0043    4.5083 C   0  0  1  0  0  0  0  0  0  0  0  0
    0.9682   -0.0024    3.8540 C   0  0  0  0  0  0  0  0  0  0  0  0
    2.1370   -0.0114    4.6402 C   0  0  0  0  0  0  0  0  0  0  0  0
    1.0853    0.0000    2.4758 N   0  0  0  0  0  0  0  0  0  0  0  0
    0.0000    0.0000    1.7703 C   0  0  0  0  0  0  0  0  0  0  0  0
   -1.2600    0.0007    2.3243 N   0  0  0  0  0  0  0  0  0  0  0  0
   -1.5195   -0.0019    3.7042 C   0  0  0  0  0  0  0  0  0  0  0  0
   -2.6609   -0.0019    4.1215 O   0  0  0  0  0  0  0  0  0  0  0  0
    0.0000    0.0000    0.0000 S   0  0  0  0  0  0  0  0  0  0  0  0
    2.7324    1.9684    8.1081 C   0  0  0  0  0  0  0  0  0  0  0  0
    2.7157   -2.7990   13.3862 H   0  0  0  0  0  0  0  0  0  0  0  0
    3.1580   -3.1024   11.1596 H   0  0  0  0  0  0  0  0  0  0  0  0
    3.9540   -2.0004    9.0762 H   0  0  0  0  0  0  0  0  0  0  0  0
    4.4640    1.6942   11.2256 H   0  0  0  0  0  0  0  0  0  0  0  0
    3.6665    0.5884   13.3178 H   0  0  0  0  0  0  0  0  0  0  0  0
    5.1770    1.5531    8.9212 H   0  0  0  0  0  0  0  0  0  0  0  0
    5.4059   -0.0508    8.1711 H   0  0  0  0  0  0  0  0  0  0  0  0
    0.7427   -0.0247    7.7576 H   0  0  0  0  0  0  0  0  0  0  0  0
   -1.3509   -0.0369    6.3743 H   0  0  0  0  0  0  0  0  0  0  0  0
    3.1059   -0.0423    4.1412 H   0  0  0  0  0  0  0  0  0  0  0  0
   -2.0824   -0.0016    1.7266 H   0  0  0  0  0  0  0  0  0  0  0  0
    2.2927   -0.0456   -0.3132 Au  0  0  0  0  0  0  0  0  0  0  0  0
    2.0369    2.1708    7.2869 H   0  0  0  0  0  0  0  0  0  0  0  0
    2.1532    1.8275    9.0376 H   0  0  0  0  0  0  0  0  0  0  0  0
    3.3715    2.8574    8.2422 H   0  0  0  0  0  0  0  0  0  0  0  0
  2  7  1  0  0  0  0
  2  1  1  0  0  0  0
  3  2  2  0  0  0  0
  4  3  1  0  0  0  0
  5  4  2  0  0  0  0
  5  6  1  0  0  0  0
  6 28  1  0  0  0  0
  6  7  2  0  0  0  0
  7 29  1  0  0  0  0
  8 30  1  0  0  0  0
  8  5  1  0  0  0  0
  9 24  1  0  0  0  0
  9  8  1  0  0  0  0
 10  9  1  0  0  0  0
 11 10  2  0  0  0  0
 12 13  1  0  0  0  0
 12 10  1  0  0  0  0
 13 32  1  0  0  0  0
 14 33  1  0  0  0  0
 14 13  2  0  0  0  0
 15 21  1  6  0  0  0
 15 14  1  0  0  0  0
 16 15  1  0  0  0  0
 16 17  1  0  0  0  0
 17 12  2  0  0  0  0
 18 16  2  0  0  0  0
 19 20  1  0  0  0  0
 19 18  2  0  0  0  0
 20 21  1  0  0  0  0
 21 22  2  0  0  0  0
 23 19  1  0  0  0  0
 24 39  1  0  0  0  0
 24 38  1  0  0  0  0
 25  1  1  0  0  0  0
 26  3  1  0  0  0  0
 27  4  1  0  0  0  0
 31  8  1  0  0  0  0
 34 17  1  0  0  0  0
 35 20  1  0  0  0  0
 36 23  1  0  0  0  0
 37 24  1  0  0  0  0
M  RAD  1  15   2
M  END
