027-938-305.xyz
 OpenBabel07262113413D
O=C(c1cnc(n1c1ccccc1)S)Nc1ccc2c(c1)CCC2
 41 44  0  0  1  0  0  0  0  0999 V2000
    0.0000    0.0000    0.0000 S   0  0  0  0  0  0  0  0  0  0  0  0
   -0.0000    0.0000    1.7624 C   0  0  0  0  0  0  0  0  0  0  0  0
    1.0554   -0.0000    2.5640 N   0  0  0  0  0  0  0  0  0  0  0  0
    0.5576    0.0467    3.8336 C   0  0  0  0  0  0  0  0  0  0  0  0
   -0.8267    0.0757    3.8243 C   0  0  2  0  0  0  0  0  0  0  0  0
   -1.8272    0.0040    4.9106 C   0  0  0  0  0  0  0  0  0  0  0  0
   -2.9616   -0.4125    4.7314 O   0  0  0  0  0  0  0  0  0  0  0  0
   -1.3380    0.4405    6.1226 N   0  0  0  0  0  0  0  0  0  0  0  0
   -1.9554    0.4202    7.3857 C   0  0  0  0  0  0  0  0  0  0  0  0
   -3.2581   -0.0690    7.5966 C   0  0  0  0  0  0  0  0  0  0  0  0
   -3.8056   -0.0550    8.8835 C   0  0  0  0  0  0  0  0  0  0  0  0
   -3.0731    0.4465    9.9576 C   0  0  0  0  0  0  0  0  0  0  0  0
   -3.4394    0.5487   11.4213 C   0  0  0  0  0  0  0  0  0  0  0  0
   -2.4018    1.5565   11.9690 C   0  0  0  0  0  0  0  0  0  0  0  0
   -1.1682    1.4012   11.0492 C   0  0  0  0  0  0  0  0  0  0  0  0
   -1.7743    0.9356    9.7438 C   0  0  0  0  0  0  0  0  0  0  0  0
   -1.2128    0.9229    8.4724 C   0  0  0  0  0  0  0  0  0  0  0  0
   -1.1752    0.0360    2.4719 N   0  0  0  0  0  0  0  0  0  0  0  0
   -2.4821    0.1119    1.8978 C   0  0  0  0  0  0  0  0  0  0  0  0
   -2.9448   -0.9414    1.1057 C   0  0  0  0  0  0  0  0  0  0  0  0
   -4.2047   -0.8510    0.5103 C   0  0  0  0  0  0  0  0  0  0  0  0
   -4.9994    0.2787    0.7175 C   0  0  0  0  0  0  0  0  0  0  0  0
   -4.5304    1.3253    1.5185 C   0  0  0  0  0  0  0  0  0  0  0  0
   -3.2685    1.2476    2.1058 C   0  0  0  0  0  0  0  0  0  0  0  0
    2.2829    0.2323   -0.2827 Au  0  0  0  0  0  0  0  0  0  0  0  0
    1.2185    0.0133    4.6998 H   0  0  0  0  0  0  0  0  0  0  0  0
   -0.4166    0.8600    6.1012 H   0  0  0  0  0  0  0  0  0  0  0  0
   -3.8245   -0.4427    6.7479 H   0  0  0  0  0  0  0  0  0  0  0  0
   -4.8195   -0.4363    9.0329 H   0  0  0  0  0  0  0  0  0  0  0  0
   -4.4800    0.8683   11.5893 H   0  0  0  0  0  0  0  0  0  0  0  0
   -3.3276   -0.4368   11.9114 H   0  0  0  0  0  0  0  0  0  0  0  0
   -2.1683    1.4028   13.0330 H   0  0  0  0  0  0  0  0  0  0  0  0
   -2.8021    2.5783   11.8634 H   0  0  0  0  0  0  0  0  0  0  0  0
   -0.5811    2.3281   10.9521 H   0  0  0  0  0  0  0  0  0  0  0  0
   -0.4801    0.6283   11.4398 H   0  0  0  0  0  0  0  0  0  0  0  0
   -0.1997    1.3043    8.3090 H   0  0  0  0  0  0  0  0  0  0  0  0
   -2.3207   -1.8253    0.9668 H   0  0  0  0  0  0  0  0  0  0  0  0
   -4.5687   -1.6730   -0.1101 H   0  0  0  0  0  0  0  0  0  0  0  0
   -5.9873    0.3446    0.2562 H   0  0  0  0  0  0  0  0  0  0  0  0
   -5.1497    2.2097    1.6834 H   0  0  0  0  0  0  0  0  0  0  0  0
   -2.8872    2.0592    2.7273 H   0  0  0  0  0  0  0  0  0  0  0  0
  1  2  1  0  0  0  0
  2 18  1  0  0  0  0
  2  3  2  0  0  0  0
  3  4  2  0  0  0  0
  4 26  1  0  0  0  0
  5  4  1  0  0  0  0
  5  6  1  1  0  0  0
  6  8  1  0  0  0  0
  7  6  2  0  0  0  0
  8  9  1  0  0  0  0
  9 10  2  0  0  0  0
  9 17  1  0  0  0  0
 10 11  1  0  0  0  0
 11 29  1  0  0  0  0
 11 12  2  0  0  0  0
 12 13  1  0  0  0  0
 13 30  1  0  0  0  0
 13 31  1  0  0  0  0
 13 14  1  0  0  0  0
 14 32  1  0  0  0  0
 15 35  1  0  0  0  0
 15 14  1  0  0  0  0
 16 12  1  0  0  0  0
 16 15  1  0  0  0  0
 17 16  2  0  0  0  0
 18  5  1  0  0  0  0
 19 24  1  0  0  0  0
 19 18  1  0  0  0  0
 20 19  2  0  0  0  0
 21 22  2  0  0  0  0
 21 20  1  0  0  0  0
 22 23  1  0  0  0  0
 23 40  1  0  0  0  0
 23 24  2  0  0  0  0
 24 41  1  0  0  0  0
 25  1  1  0  0  0  0
 27  8  1  0  0  0  0
 28 10  1  0  0  0  0
 33 14  1  0  0  0  0
 34 15  1  0  0  0  0
 36 17  1  0  0  0  0
 37 20  1  0  0  0  0
 38 21  1  0  0  0  0
 39 22  1  0  0  0  0
M  RAD  1   5   2
M  END
