027-940-384.xyz
 OpenBabel07262113413D
Oc1ccc(cc1)CNC(=O)c1ccc2c(c1)nc([nH]c2=O)S
 36 38  0  0  1  0  0  0  0  0999 V2000
    6.8278    5.7593    8.5759 O   0  0  0  0  0  0  0  0  0  0  0  0
    6.2908    4.5130    8.6207 C   0  0  0  0  0  0  0  0  0  0  0  0
    5.6161    4.1306    9.7869 C   0  0  0  0  0  0  0  0  0  0  0  0
    5.0501    2.8589    9.8728 C   0  0  0  0  0  0  0  0  0  0  0  0
    5.1421    1.9448    8.8146 C   0  0  0  0  0  0  0  0  0  0  0  0
    5.8233    2.3389    7.6522 C   0  0  0  0  0  0  0  0  0  0  0  0
    6.3909    3.6081    7.5530 C   0  0  0  0  0  0  0  0  0  0  0  0
    4.4989    0.5777    8.8972 C   0  0  0  0  0  0  0  0  0  0  0  0
    3.3010    0.4468    8.0759 N   0  0  0  0  0  0  0  0  0  0  0  0
    3.3664    0.0074    6.7847 C   0  0  0  0  0  0  0  0  0  0  0  0
    4.4088   -0.3644    6.2628 O   0  0  0  0  0  0  0  0  0  0  0  0
    2.0630    0.0059    6.0273 C   0  0  0  0  0  0  0  0  0  0  0  0
    0.8027   -0.0120    6.6661 C   0  0  0  0  0  0  0  0  0  0  0  0
   -0.3595   -0.0153    5.9092 C   0  0  0  0  0  0  0  0  0  0  0  0
   -0.2871   -0.0035    4.5080 C   0  0  1  0  0  0  0  0  0  0  0  0
    0.9705   -0.0017    3.8525 C   0  0  0  0  0  0  0  0  0  0  0  0
    2.1391   -0.0043    4.6380 C   0  0  0  0  0  0  0  0  0  0  0  0
    1.0860    0.0000    2.4745 N   0  0  0  0  0  0  0  0  0  0  0  0
    0.0000    0.0000    1.7696 C   0  0  0  0  0  0  0  0  0  0  0  0
   -1.2597    0.0002    2.3251 N   0  0  0  0  0  0  0  0  0  0  0  0
   -1.5181   -0.0026    3.7046 C   0  0  0  0  0  0  0  0  0  0  0  0
   -2.6584   -0.0041    4.1244 O   0  0  0  0  0  0  0  0  0  0  0  0
    0.0000    0.0000    0.0000 S   0  0  0  0  0  0  0  0  0  0  0  0
    7.2628    5.8900    7.7233 H   0  0  0  0  0  0  0  0  0  0  0  0
    5.5479    4.8416   10.6122 H   0  0  0  0  0  0  0  0  0  0  0  0
    4.5277    2.5706   10.7899 H   0  0  0  0  0  0  0  0  0  0  0  0
    5.9021    1.6364    6.8196 H   0  0  0  0  0  0  0  0  0  0  0  0
    6.9218    3.9014    6.6417 H   0  0  0  0  0  0  0  0  0  0  0  0
    5.1965   -0.1949    8.5467 H   0  0  0  0  0  0  0  0  0  0  0  0
    4.2313    0.3485    9.9403 H   0  0  0  0  0  0  0  0  0  0  0  0
    2.4798    0.9659    8.3617 H   0  0  0  0  0  0  0  0  0  0  0  0
    0.7359   -0.0566    7.7547 H   0  0  0  0  0  0  0  0  0  0  0  0
   -1.3466   -0.0360    6.3745 H   0  0  0  0  0  0  0  0  0  0  0  0
    3.1148   -0.0158    4.1528 H   0  0  0  0  0  0  0  0  0  0  0  0
   -2.0825   -0.0013    1.7279 H   0  0  0  0  0  0  0  0  0  0  0  0
    2.2942   -0.0319   -0.3086 Au  0  0  0  0  0  0  0  0  0  0  0  0
  1  2  1  0  0  0  0
  2  3  2  0  0  0  0
  3  4  1  0  0  0  0
  3 25  1  0  0  0  0
  4 26  1  0  0  0  0
  5  8  1  0  0  0  0
  5  4  2  0  0  0  0
  6  5  1  0  0  0  0
  7  6  2  0  0  0  0
  7  2  1  0  0  0  0
  8 30  1  0  0  0  0
  9 31  1  0  0  0  0
  9  8  1  0  0  0  0
 10  9  1  0  0  0  0
 11 10  2  0  0  0  0
 12 13  1  0  0  0  0
 12 10  1  0  0  0  0
 13 32  1  0  0  0  0
 14 33  1  0  0  0  0
 14 13  2  0  0  0  0
 15 21  1  6  0  0  0
 15 14  1  0  0  0  0
 16 15  1  0  0  0  0
 16 17  1  0  0  0  0
 17 12  2  0  0  0  0
 18 16  2  0  0  0  0
 19 20  1  0  0  0  0
 19 18  2  0  0  0  0
 20 21  1  0  0  0  0
 21 22  2  0  0  0  0
 23 19  1  0  0  0  0
 24  1  1  0  0  0  0
 27  6  1  0  0  0  0
 28  7  1  0  0  0  0
 29  8  1  0  0  0  0
 34 17  1  0  0  0  0
 35 20  1  0  0  0  0
 36 23  1  0  0  0  0
M  RAD  1  15   2
M  END
