030-179-175.xyz
 OpenBabel07262113413D
Fc1cc(N)c(cc1C)S
 18 18  0  0  0  0  0  0  0  0999 V2000
    0.0743    0.2528    5.8660 F   0  0  0  0  0  0  0  0  0  0  0  0
    0.0557    0.1643    4.5259 C   0  0  0  0  0  0  0  0  0  0  0  0
   -1.1726    0.1462    3.8875 C   0  0  0  0  0  0  0  0  0  0  0  0
   -1.2297    0.0587    2.4822 C   0  0  0  0  0  0  0  0  0  0  0  0
   -2.4248   -0.0290    1.8236 N   0  0  0  0  0  0  0  0  0  0  0  0
   -0.0000   -0.0000    1.7616 C   0  0  0  0  0  0  0  0  0  0  0  0
    1.2190   -0.0000    2.4650 C   0  0  0  0  0  0  0  0  0  0  0  0
    1.2875    0.0916    3.8531 C   0  0  0  0  0  0  0  0  0  0  0  0
    2.5815    0.1137    4.6199 C   0  0  0  0  0  0  0  0  0  0  0  0
    0.0000    0.0000    0.0000 S   0  0  0  0  0  0  0  0  0  0  0  0
   -2.0829    0.1949    4.4878 H   0  0  0  0  0  0  0  0  0  0  0  0
   -3.2690    0.2369    2.3131 H   0  0  0  0  0  0  0  0  0  0  0  0
   -2.3981    0.1415    0.8225 H   0  0  0  0  0  0  0  0  0  0  0  0
    2.1423   -0.0651    1.8853 H   0  0  0  0  0  0  0  0  0  0  0  0
    2.6921    1.0456    5.1987 H   0  0  0  0  0  0  0  0  0  0  0  0
    2.6360   -0.7167    5.3428 H   0  0  0  0  0  0  0  0  0  0  0  0
    3.4395    0.0311    3.9379 H   0  0  0  0  0  0  0  0  0  0  0  0
   -0.6865   -2.1542   -0.5402 Au  0  0  0  0  0  0  0  0  0  0  0  0
  2  1  1  0  0  0  0
  3 11  1  0  0  0  0
  3  2  1  0  0  0  0
  4  3  2  0  0  0  0
  5 12  1  0  0  0  0
  5  4  1  0  0  0  0
  6  7  2  0  0  0  0
  6  4  1  0  0  0  0
  7  8  1  0  0  0  0
  8  2  2  0  0  0  0
  8  9  1  0  0  0  0
  9 15  1  0  0  0  0
  9 16  1  0  0  0  0
 10  6  1  0  0  0  0
 13  5  1  0  0  0  0
 14  7  1  0  0  0  0
 17  9  1  0  0  0  0
 18 10  1  0  0  0  0
M  END
