030-940-660.xyz
 OpenBabel07262113413D
Brc1ccc(c(c1N)S)C
 18 18  0  0  0  0  0  0  0  0999 V2000
   -2.8831   -0.2122    4.8217 Br  0  0  0  0  0  0  0  0  0  0  0  0
   -1.2297   -0.1309    3.8587 C   0  0  0  0  0  0  0  0  0  0  0  0
   -0.0333   -0.1568    4.5598 C   0  0  0  0  0  0  0  0  0  0  0  0
    1.1852   -0.0872    3.8752 C   0  0  0  0  0  0  0  0  0  0  0  0
    1.2222    0.0000    2.4819 C   0  0  0  0  0  0  0  0  0  0  0  0
    0.0000    0.0000    1.7659 C   0  0  0  0  0  0  0  0  0  0  0  0
   -1.2578   -0.0426    2.4470 C   0  0  0  0  0  0  0  0  0  0  0  0
   -2.4241    0.0536    1.7536 N   0  0  0  0  0  0  0  0  0  0  0  0
    0.0000    0.0000    0.0000 S   0  0  0  0  0  0  0  0  0  0  0  0
    2.5400    0.0995    1.7632 C   0  0  0  0  0  0  0  0  0  0  0  0
   -0.0514   -0.2277    5.6484 H   0  0  0  0  0  0  0  0  0  0  0  0
    2.1189   -0.1012    4.4408 H   0  0  0  0  0  0  0  0  0  0  0  0
   -2.3713   -0.0943    0.7510 H   0  0  0  0  0  0  0  0  0  0  0  0
   -3.2896   -0.1577    2.2341 H   0  0  0  0  0  0  0  0  0  0  0  0
   -0.5450    2.1981   -0.5154 Au  0  0  0  0  0  0  0  0  0  0  0  0
    3.3747    0.1132    2.4781 H   0  0  0  0  0  0  0  0  0  0  0  0
    2.5840    1.0146    1.1507 H   0  0  0  0  0  0  0  0  0  0  0  0
    2.6870   -0.7421    1.0687 H   0  0  0  0  0  0  0  0  0  0  0  0
  2  3  2  0  0  0  0
  2  1  1  0  0  0  0
  3 11  1  0  0  0  0
  4 12  1  0  0  0  0
  4  3  1  0  0  0  0
  5  4  2  0  0  0  0
  6  7  2  0  0  0  0
  6  5  1  0  0  0  0
  7  2  1  0  0  0  0
  8 14  1  0  0  0  0
  8  7  1  0  0  0  0
  9  6  1  0  0  0  0
 10 16  1  0  0  0  0
 10  5  1  0  0  0  0
 13  8  1  0  0  0  0
 15  9  1  0  0  0  0
 17 10  1  0  0  0  0
 18 10  1  0  0  0  0
M  END
