035-775-539.xyz
 OpenBabel07262113413D
Sc1ccc(cc1)c1ccc(cc1)c1ccccc1
 33 35  0  0  0  0  0  0  0  0999 V2000
    0.0000    0.0000    0.0000 S   0  0  0  0  0  0  0  0  0  0  0  0
   -0.0000    0.0000    1.7788 C   0  0  0  0  0  0  0  0  0  0  0  0
   -1.2062   -0.0869    2.4955 C   0  0  0  0  0  0  0  0  0  0  0  0
   -1.1967   -0.1656    3.8847 C   0  0  0  0  0  0  0  0  0  0  0  0
    0.0124   -0.1641    4.6078 C   0  0  0  0  0  0  0  0  0  0  0  0
    1.2150   -0.0820    3.8794 C   0  0  0  0  0  0  0  0  0  0  0  0
    1.2124    0.0000    2.4900 C   0  0  0  0  0  0  0  0  0  0  0  0
    0.0187   -0.2466    6.0860 C   0  0  0  0  0  0  0  0  0  0  0  0
    1.0404   -0.9258    6.7745 C   0  0  0  0  0  0  0  0  0  0  0  0
    1.0451   -1.0044    8.1644 C   0  0  0  0  0  0  0  0  0  0  0  0
    0.0308   -0.4049    8.9326 C   0  0  0  0  0  0  0  0  0  0  0  0
   -0.9897    0.2756    8.2443 C   0  0  0  0  0  0  0  0  0  0  0  0
   -0.9968    0.3516    6.8542 C   0  0  0  0  0  0  0  0  0  0  0  0
    0.0370   -0.4875   10.4130 C   0  0  0  0  0  0  0  0  0  0  0  0
    0.4930   -1.6445   11.0711 C   0  0  0  0  0  0  0  0  0  0  0  0
    0.4987   -1.7227   12.4643 C   0  0  0  0  0  0  0  0  0  0  0  0
    0.0488   -0.6449   13.2321 C   0  0  0  0  0  0  0  0  0  0  0  0
   -0.4071    0.5114   12.5929 C   0  0  0  0  0  0  0  0  0  0  0  0
   -0.4130    0.5888   11.1996 C   0  0  0  0  0  0  0  0  0  0  0  0
   -0.1612    2.2383   -0.5277 Au  0  0  0  0  0  0  0  0  0  0  0  0
   -2.1501   -0.1000    1.9476 H   0  0  0  0  0  0  0  0  0  0  0  0
   -2.1437   -0.2577    4.4201 H   0  0  0  0  0  0  0  0  0  0  0  0
    2.1669   -0.0540    4.4132 H   0  0  0  0  0  0  0  0  0  0  0  0
    2.1516    0.0756    1.9389 H   0  0  0  0  0  0  0  0  0  0  0  0
    1.8359   -1.4170    6.2106 H   0  0  0  0  0  0  0  0  0  0  0  0
    1.8616   -1.5275    8.6663 H   0  0  0  0  0  0  0  0  0  0  0  0
   -1.8019    0.7391    8.8079 H   0  0  0  0  0  0  0  0  0  0  0  0
   -1.7971    0.9014    6.3550 H   0  0  0  0  0  0  0  0  0  0  0  0
    0.8229   -2.5028   10.4822 H   0  0  0  0  0  0  0  0  0  0  0  0
    0.8491   -2.6349   12.9533 H   0  0  0  0  0  0  0  0  0  0  0  0
    0.0533   -0.7059   14.3229 H   0  0  0  0  0  0  0  0  0  0  0  0
   -0.7530    1.3633   13.1834 H   0  0  0  0  0  0  0  0  0  0  0  0
   -0.7476    1.5071   10.7127 H   0  0  0  0  0  0  0  0  0  0  0  0
  1  2  1  0  0  0  0
  2  7  2  0  0  0  0
  2  3  1  0  0  0  0
  3  4  2  0  0  0  0
  4 22  1  0  0  0  0
  4  5  1  0  0  0  0
  5  8  1  0  0  0  0
  6 23  1  0  0  0  0
  6  5  2  0  0  0  0
  7  6  1  0  0  0  0
  8  9  2  0  0  0  0
  8 13  1  0  0  0  0
  9 10  1  0  0  0  0
 10 26  1  0  0  0  0
 10 11  2  0  0  0  0
 11 14  1  0  0  0  0
 12 27  1  0  0  0  0
 12 11  1  0  0  0  0
 13 12  2  0  0  0  0
 14 15  2  0  0  0  0
 14 19  1  0  0  0  0
 15 16  1  0  0  0  0
 16 30  1  0  0  0  0
 16 17  2  0  0  0  0
 17 31  1  0  0  0  0
 18 32  1  0  0  0  0
 18 17  1  0  0  0  0
 19 18  2  0  0  0  0
 20  1  1  0  0  0  0
 21  3  1  0  0  0  0
 24  7  1  0  0  0  0
 25  9  1  0  0  0  0
 28 13  1  0  0  0  0
 29 15  1  0  0  0  0
 33 19  1  0  0  0  0
M  END
