035-842-708.xyz
 OpenBabel07262113423D
N#Cc1cn(c(c1)C(=O)Nc1ccc2c(c1)oc(n2)S)C
 31 33  0  0  1  0  0  0  0  0999 V2000
    2.3995    1.5537    9.7592 C   0  0  0  0  0  0  0  0  0  0  0  0
    3.5907    0.7202    9.7211 N   0  0  0  0  0  0  0  0  0  0  0  0
    4.4204    0.5556   10.7901 C   0  0  0  0  0  0  0  0  0  0  0  0
    5.5148   -0.2114   10.3936 C   0  0  0  0  0  0  0  0  0  0  0  0
    5.3349   -0.5062    9.0113 C   0  0  0  0  0  0  0  0  0  0  0  0
    4.1378    0.0657    8.6174 C   0  0  0  0  0  0  0  0  0  0  0  0
    3.5817   -0.0142    7.2409 C   0  0  0  0  0  0  0  0  0  0  0  0
    4.3223   -0.1242    6.2786 O   0  0  0  0  0  0  0  0  0  0  0  0
    2.2053    0.0120    7.1526 N   0  0  0  0  0  0  0  0  0  0  0  0
    1.3998   -0.0026    5.9974 C   0  0  1  0  0  0  0  0  0  0  0  0
   -0.0020   -0.0024    6.2008 C   0  0  0  0  0  0  0  0  0  0  0  0
   -0.9064   -0.0027    5.1410 C   0  0  0  0  0  0  0  0  0  0  0  0
   -0.3846    0.0010    3.8439 C   0  0  0  0  0  0  0  0  0  0  0  0
   -0.9903    0.0005    2.5903 N   0  0  0  0  0  0  0  0  0  0  0  0
    0.0000   -0.0000    1.7499 C   0  0  0  0  0  0  0  0  0  0  0  0
    0.0000    0.0000    0.0000 S   0  0  0  0  0  0  0  0  0  0  0  0
    1.2481    0.0000    2.3204 O   0  0  0  0  0  0  0  0  0  0  0  0
    1.0106    0.0011    3.6707 C   0  0  0  0  0  0  0  0  0  0  0  0
    1.9403   -0.0039    4.6981 C   0  0  0  0  0  0  0  0  0  0  0  0
    6.5980   -0.6046   11.2289 C   0  0  0  0  0  0  0  0  0  0  0  0
    7.4806   -0.9268   11.9118 N   0  0  0  0  0  0  0  0  0  0  0  0
    2.3128    2.1415    8.8364 H   0  0  0  0  0  0  0  0  0  0  0  0
    2.4765    2.2443   10.6087 H   0  0  0  0  0  0  0  0  0  0  0  0
    1.4819    0.9556    9.8916 H   0  0  0  0  0  0  0  0  0  0  0  0
    4.2005    1.0055   11.7553 H   0  0  0  0  0  0  0  0  0  0  0  0
    5.9950   -1.0784    8.3657 H   0  0  0  0  0  0  0  0  0  0  0  0
    1.6942   -0.0834    8.0197 H   0  0  0  0  0  0  0  0  0  0  0  0
   -0.3831   -0.0025    7.2261 H   0  0  0  0  0  0  0  0  0  0  0  0
   -1.9833   -0.0054    5.3142 H   0  0  0  0  0  0  0  0  0  0  0  0
   -2.2883   -0.0118   -0.3094 Au  0  0  0  0  0  0  0  0  0  0  0  0
    3.0135   -0.0172    4.5336 H   0  0  0  0  0  0  0  0  0  0  0  0
  1 24  1  0  0  0  0
  1 23  1  0  0  0  0
  2  1  1  0  0  0  0
  2  3  1  0  0  0  0
  3 25  1  0  0  0  0
  4  3  2  0  0  0  0
  4 20  1  0  0  0  0
  5  4  1  0  0  0  0
  6  5  2  0  0  0  0
  6  2  1  0  0  0  0
  7  6  1  0  0  0  0
  8  7  2  0  0  0  0
  9  7  1  0  0  0  0
  9 27  1  0  0  0  0
 10 11  1  0  0  0  0
 10  9  1  6  0  0  0
 11 28  1  0  0  0  0
 12 29  1  0  0  0  0
 12 11  2  0  0  0  0
 13 12  1  0  0  0  0
 14 13  2  0  0  0  0
 15 17  1  0  0  0  0
 15 14  2  0  0  0  0
 16 15  1  0  0  0  0
 17 18  1  0  0  0  0
 18 13  1  0  0  0  0
 18 19  2  0  0  0  0
 19 10  1  0  0  0  0
 20 21  3  0  0  0  0
 22  1  1  0  0  0  0
 26  5  1  0  0  0  0
 30 16  1  0  0  0  0
 31 19  1  0  0  0  0
M  RAD  1  10   2
M  END
