035-387-004.xyz
 OpenBabel07262113413D
O=c1nc(S)[nH]c(c1C)c1ccccc1
 25 26  0  0  0  0  0  0  0  0999 V2000
   -0.3163   -0.0969    6.0082 C   0  0  0  0  0  0  0  0  0  0  0  0
   -0.3044   -0.0208    4.5118 C   0  0  0  0  0  0  0  0  0  0  0  0
   -1.4136   -0.0053    3.7178 C   0  0  0  0  0  0  0  0  0  0  0  0
   -1.2457   -0.0008    2.3360 N   0  0  0  0  0  0  0  0  0  0  0  0
   -0.0000   -0.0000    1.7747 C   0  0  0  0  0  0  0  0  0  0  0  0
    0.0000    0.0000    0.0000 S   0  0  0  0  0  0  0  0  0  0  0  0
    1.0894    0.0000    2.4731 N   0  0  0  0  0  0  0  0  0  0  0  0
    1.0383    0.0140    3.8741 C   0  0  0  0  0  0  0  0  0  0  0  0
    2.0588    0.0409    4.5412 O   0  0  0  0  0  0  0  0  0  0  0  0
   -2.8247   -0.0177    4.1699 C   0  0  0  0  0  0  0  0  0  0  0  0
   -3.7430   -0.9117    3.5905 C   0  0  0  0  0  0  0  0  0  0  0  0
   -5.0783   -0.9205    3.9967 C   0  0  0  0  0  0  0  0  0  0  0  0
   -5.5164   -0.0334    4.9836 C   0  0  0  0  0  0  0  0  0  0  0  0
   -4.6126    0.8635    5.5606 C   0  0  0  0  0  0  0  0  0  0  0  0
   -3.2769    0.8736    5.1570 C   0  0  0  0  0  0  0  0  0  0  0  0
    0.4686   -0.7940    6.3370 H   0  0  0  0  0  0  0  0  0  0  0  0
   -0.0553    0.8779    6.4543 H   0  0  0  0  0  0  0  0  0  0  0  0
   -1.2869   -0.4168    6.4084 H   0  0  0  0  0  0  0  0  0  0  0  0
   -2.0653    0.0804    1.7458 H   0  0  0  0  0  0  0  0  0  0  0  0
    2.3153    0.0317   -0.2092 Au  0  0  0  0  0  0  0  0  0  0  0  0
   -3.4017   -1.6236    2.8347 H   0  0  0  0  0  0  0  0  0  0  0  0
   -5.7773   -1.6287    3.5459 H   0  0  0  0  0  0  0  0  0  0  0  0
   -6.5615   -0.0398    5.3018 H   0  0  0  0  0  0  0  0  0  0  0  0
   -4.9514    1.5658    6.3257 H   0  0  0  0  0  0  0  0  0  0  0  0
   -2.5785    1.5884    5.5946 H   0  0  0  0  0  0  0  0  0  0  0  0
  1 16  1  0  0  0  0
  1 18  1  0  0  0  0
  1 17  1  0  0  0  0
  2  1  1  0  0  0  0
  3 10  1  0  0  0  0
  3  2  2  0  0  0  0
  4  3  1  0  0  0  0
  5  4  1  0  0  0  0
  5  7  2  0  0  0  0
  6  5  1  0  0  0  0
  7  8  2  0  0  0  0
  8  2  1  0  0  0  0
  8  9  2  0  0  0  0
 10 15  2  0  0  0  0
 11 12  2  0  0  0  0
 11 10  1  0  0  0  0
 12 13  1  0  0  0  0
 13 23  1  0  0  0  0
 13 14  2  0  0  0  0
 14 24  1  0  0  0  0
 15 14  1  0  0  0  0
 15 25  1  0  0  0  0
 19  4  1  0  0  0  0
 20  6  1  0  0  0  0
 21 11  1  0  0  0  0
 22 12  1  0  0  0  0
M  END
