035-833-582.xyz
 OpenBabel07262113413D
Cc1cc(C)c2c(c1)N(CCC2)C(=O)c1cc(F)cc2c1nc([nH]2)S
 43 46  0  0  1  0  0  0  0  0999 V2000
    7.8204   -1.1452    6.3602 C   0  0  0  0  0  0  0  0  0  0  0  0
    7.0846   -0.2500    5.3947 C   0  0  0  0  0  0  0  0  0  0  0  0
    7.7716    0.4470    4.3944 C   0  0  0  0  0  0  0  0  0  0  0  0
    7.0987    1.2588    3.4784 C   0  0  0  0  0  0  0  0  0  0  0  0
    7.8772    2.0063    2.4252 C   0  0  0  0  0  0  0  0  0  0  0  0
    5.6934    1.3815    3.5425 C   0  0  0  0  0  0  0  0  0  0  0  0
    4.9945    0.6805    4.5525 C   0  0  0  0  0  0  0  0  0  0  0  0
    5.6971   -0.1201    5.4693 C   0  0  0  0  0  0  0  0  0  0  0  0
    3.5751    0.8389    4.6428 N   0  0  0  0  0  0  0  0  0  0  0  0
    3.0593    2.0993    4.1015 C   0  0  0  0  0  0  0  0  0  0  0  0
    3.4699    2.2390    2.6438 C   0  0  0  0  0  0  0  0  0  0  0  0
    4.9930    2.2865    2.5502 C   0  0  0  0  0  0  0  0  0  0  0  0
    2.7446   -0.1274    5.1639 C   0  0  0  0  0  0  0  0  0  0  0  0
    3.1231   -1.1481    5.7150 O   0  0  0  0  0  0  0  0  0  0  0  0
    1.2495    0.0875    5.0556 C   0  0  0  0  0  0  0  0  0  0  0  0
    0.4852    0.1337    6.2187 C   0  0  0  0  0  0  0  0  0  0  0  0
   -0.9186    0.1927    6.1559 C   0  0  0  0  0  0  0  0  0  0  0  0
   -1.5956    0.2586    7.3107 F   0  0  0  0  0  0  0  0  0  0  0  0
   -1.6373    0.1783    4.9671 C   0  0  0  0  0  0  0  0  0  0  0  0
   -0.8656    0.1041    3.8029 C   0  0  2  0  0  0  0  0  0  0  0  0
    0.5598    0.0615    3.8250 C   0  0  0  0  0  0  0  0  0  0  0  0
    1.0516    0.0000    2.5416 N   0  0  0  0  0  0  0  0  0  0  0  0
    0.0000    0.0000    1.7510 C   0  0  0  0  0  0  0  0  0  0  0  0
   -1.1873    0.0599    2.4677 N   0  0  0  0  0  0  0  0  0  0  0  0
    0.0000    0.0000    0.0000 S   0  0  0  0  0  0  0  0  0  0  0  0
    7.2805   -1.2385    7.3143 H   0  0  0  0  0  0  0  0  0  0  0  0
    7.9309   -2.1633    5.9476 H   0  0  0  0  0  0  0  0  0  0  0  0
    8.8327   -0.7671    6.5711 H   0  0  0  0  0  0  0  0  0  0  0  0
    8.8601    0.3614    4.3286 H   0  0  0  0  0  0  0  0  0  0  0  0
    7.5745    1.7118    1.4061 H   0  0  0  0  0  0  0  0  0  0  0  0
    8.9557    1.8176    2.5225 H   0  0  0  0  0  0  0  0  0  0  0  0
    7.7174    3.0955    2.4947 H   0  0  0  0  0  0  0  0  0  0  0  0
    5.1443   -0.6547    6.2351 H   0  0  0  0  0  0  0  0  0  0  0  0
    1.9726    2.1244    4.2201 H   0  0  0  0  0  0  0  0  0  0  0  0
    3.4746    2.9289    4.7026 H   0  0  0  0  0  0  0  0  0  0  0  0
    3.0263    3.1479    2.2073 H   0  0  0  0  0  0  0  0  0  0  0  0
    3.0589    1.3770    2.0988 H   0  0  0  0  0  0  0  0  0  0  0  0
    5.3441    3.3218    2.7183 H   0  0  0  0  0  0  0  0  0  0  0  0
    5.3160    2.0359    1.5267 H   0  0  0  0  0  0  0  0  0  0  0  0
    0.9635    0.1145    7.1986 H   0  0  0  0  0  0  0  0  0  0  0  0
   -2.7266    0.2184    4.9741 H   0  0  0  0  0  0  0  0  0  0  0  0
   -2.1103    0.0630    2.0522 H   0  0  0  0  0  0  0  0  0  0  0  0
    0.0827   -2.2646   -0.4623 Au  0  0  0  0  0  0  0  0  0  0  0  0
  1 28  1  0  0  0  0
  1 26  1  0  0  0  0
  2  8  1  0  0  0  0
  2  1  1  0  0  0  0
  3  2  2  0  0  0  0
  4  6  2  0  0  0  0
  4  3  1  0  0  0  0
  5 32  1  0  0  0  0
  5 31  1  0  0  0  0
  5  4  1  0  0  0  0
  6  7  1  0  0  0  0
  7  9  1  0  0  0  0
  7  8  2  0  0  0  0
  8 33  1  0  0  0  0
  9 13  1  0  0  0  0
 10 34  1  0  0  0  0
 10  9  1  0  0  0  0
 10 35  1  0  0  0  0
 11 10  1  0  0  0  0
 12 11  1  0  0  0  0
 12 38  1  0  0  0  0
 12  6  1  0  0  0  0
 13 14  2  0  0  0  0
 15 13  1  0  0  0  0
 15 16  2  0  0  0  0
 16 40  1  0  0  0  0
 17 16  1  0  0  0  0
 17 18  1  0  0  0  0
 19 41  1  0  0  0  0
 19 17  2  0  0  0  0
 20 21  1  6  0  0  0
 20 19  1  0  0  0  0
 21 15  1  0  0  0  0
 22 21  2  0  0  0  0
 23 24  1  0  0  0  0
 23 22  2  0  0  0  0
 24 20  1  0  0  0  0
 25 23  1  0  0  0  0
 27  1  1  0  0  0  0
 29  3  1  0  0  0  0
 30  5  1  0  0  0  0
 36 11  1  0  0  0  0
 37 11  1  0  0  0  0
 39 12  1  0  0  0  0
 42 24  1  0  0  0  0
 43 25  1  0  0  0  0
M  RAD  1  20   2
M  END
