035-843-936.xyz
 OpenBabel07262113423D
Clc1ccc2c(c1)C(CS2(=O)=O)N(C(=O)c1cccnc1S)C
 36 38  0  0  1  0  0  0  0  0999 V2000
   -2.2534   -3.7229   -2.3473 Cl  0  0  0  0  0  0  0  0  0  0  0  0
   -3.5540   -2.7536   -1.7047 C   0  0  0  0  0  0  0  0  0  0  0  0
   -4.8735   -3.2092   -1.8396 C   0  0  0  0  0  0  0  0  0  0  0  0
   -5.9185   -2.4443   -1.3207 C   0  0  0  0  0  0  0  0  0  0  0  0
   -5.6034   -1.2483   -0.6843 C   0  0  0  0  0  0  0  0  0  0  0  0
   -4.2931   -0.7926   -0.5427 C   0  0  0  0  0  0  0  0  0  0  0  0
   -3.2462   -1.5506   -1.0621 C   0  0  0  0  0  0  0  0  0  0  0  0
   -4.1790    0.5628    0.1458 C   0  0  1  0  0  0  0  0  0  0  0  0
   -5.4543    0.7292    0.9999 C   0  0  0  0  0  0  0  0  0  0  0  0
   -6.7614   -0.0765    0.0150 S   0  0  0  0  0  0  0  0  0  0  0  0
   -7.1776    0.8695   -1.0313 O   0  0  0  0  0  0  0  0  0  0  0  0
   -7.7611   -0.7454    0.8506 O   0  0  0  0  0  0  0  0  0  0  0  0
   -2.9374    0.7741    0.8790 N   0  0  0  0  0  0  0  0  0  0  0  0
   -2.5836   -0.1532    1.8309 C   0  0  0  0  0  0  0  0  0  0  0  0
   -3.3274   -1.0706    2.1439 O   0  0  0  0  0  0  0  0  0  0  0  0
   -1.2319   -0.0301    2.4815 C   0  0  1  0  0  0  0  0  0  0  0  0
   -1.1809   -0.1148    3.8762 C   0  0  0  0  0  0  0  0  0  0  0  0
    0.0469   -0.1016    4.5341 C   0  0  0  0  0  0  0  0  0  0  0  0
    1.1996   -0.0366    3.7497 C   0  0  0  0  0  0  0  0  0  0  0  0
    1.1751   -0.0000    2.4178 N   0  0  0  0  0  0  0  0  0  0  0  0
   -0.0000   -0.0000    1.7785 C   0  0  0  0  0  0  0  0  0  0  0  0
    0.0000    0.0000    0.0000 S   0  0  0  0  0  0  0  0  0  0  0  0
   -2.3576    2.1062    0.7775 C   0  0  0  0  0  0  0  0  0  0  0  0
   -5.0673   -4.1590   -2.3391 H   0  0  0  0  0  0  0  0  0  0  0  0
   -6.9551   -2.7787   -1.3954 H   0  0  0  0  0  0  0  0  0  0  0  0
   -2.2081   -1.2364   -0.9516 H   0  0  0  0  0  0  0  0  0  0  0  0
   -4.1995    1.3260   -0.6484 H   0  0  0  0  0  0  0  0  0  0  0  0
   -5.3667    0.1657    1.9364 H   0  0  0  0  0  0  0  0  0  0  0  0
   -5.7578    1.7700    1.1668 H   0  0  0  0  0  0  0  0  0  0  0  0
   -2.1187   -0.1973    4.4299 H   0  0  0  0  0  0  0  0  0  0  0  0
    0.1124   -0.1521    5.6220 H   0  0  0  0  0  0  0  0  0  0  0  0
    2.1918   -0.0233    4.2137 H   0  0  0  0  0  0  0  0  0  0  0  0
    2.2763   -0.1585   -0.3724 Au  0  0  0  0  0  0  0  0  0  0  0  0
   -3.1115    2.8698    1.0361 H   0  0  0  0  0  0  0  0  0  0  0  0
   -1.5188    2.2092    1.4741 H   0  0  0  0  0  0  0  0  0  0  0  0
   -1.9873    2.3000   -0.2401 H   0  0  0  0  0  0  0  0  0  0  0  0
  1  2  1  0  0  0  0
  2  7  1  0  0  0  0
  3  2  2  0  0  0  0
  3  4  1  0  0  0  0
  4  5  2  0  0  0  0
  5  6  1  0  0  0  0
  5 10  1  0  0  0  0
  6  8  1  0  0  0  0
  7 26  1  0  0  0  0
  7  6  2  0  0  0  0
  8 27  1  6  0  0  0
  8 13  1  0  0  0  0
  8  9  1  0  0  0  0
  9 29  1  0  0  0  0
  9 28  1  0  0  0  0
 10 12  2  0  0  0  0
 10  9  1  0  0  0  0
 11 10  2  0  0  0  0
 13 14  1  0  0  0  0
 14 15  2  0  0  0  0
 16 14  1  6  0  0  0
 16 17  1  0  0  0  0
 17 30  1  0  0  0  0
 17 18  2  0  0  0  0
 18 31  1  0  0  0  0
 19 32  1  0  0  0  0
 19 18  1  0  0  0  0
 20 19  2  0  0  0  0
 21 20  2  0  0  0  0
 21 16  1  0  0  0  0
 22 21  1  0  0  0  0
 23 13  1  0  0  0  0
 23 34  1  0  0  0  0
 23 35  1  0  0  0  0
 24  3  1  0  0  0  0
 25  4  1  0  0  0  0
 33 22  1  0  0  0  0
 36 23  1  0  0  0  0
M  RAD  1  16   2
M  END
