035-845-006.xyz
 OpenBabel07262113423D
N#Cc1c(N)sc2c1CCN(C2)C(=O)c1ccc2c(c1)oc(n2)S
 36 39  0  0  1  0  0  0  0  0999 V2000
   -1.7539   -0.0994   13.5725 N   0  0  0  0  0  0  0  0  0  0  0  0
   -1.5531   -0.6805   12.5840 C   0  0  0  0  0  0  0  0  0  0  0  0
   -1.3566   -1.4126   11.3847 C   0  0  0  0  0  0  0  0  0  0  0  0
   -2.2869   -2.3507   10.9412 C   0  0  0  0  0  0  0  0  0  0  0  0
   -3.4289   -2.7484   11.5726 N   0  0  0  0  0  0  0  0  0  0  0  0
   -1.7797   -3.0732    9.4339 S   0  0  0  0  0  0  0  0  0  0  0  0
   -0.3178   -2.0993    9.4060 C   0  0  0  0  0  0  0  0  0  0  0  0
   -0.2233   -1.2843   10.4962 C   0  0  0  0  0  0  0  0  0  0  0  0
    0.9424   -0.3508   10.6839 C   0  0  0  0  0  0  0  0  0  0  0  0
    2.0803   -0.7081    9.7154 C   0  0  0  0  0  0  0  0  0  0  0  0
    1.5390   -0.9734    8.3868 N   0  0  0  0  0  0  0  0  0  0  0  0
    0.7144   -2.1685    8.3152 C   0  0  0  0  0  0  0  0  0  0  0  0
    1.8214   -0.1098    7.3525 C   0  0  0  0  0  0  0  0  0  0  0  0
    2.7089    0.7266    7.4333 O   0  0  0  0  0  0  0  0  0  0  0  0
    0.9774   -0.1947    6.1093 C   0  0  1  0  0  0  0  0  0  0  0  0
   -0.4345   -0.2383    6.1739 C   0  0  0  0  0  0  0  0  0  0  0  0
   -1.2279   -0.2028    5.0263 C   0  0  0  0  0  0  0  0  0  0  0  0
   -0.5749   -0.1303    3.7913 C   0  0  0  0  0  0  0  0  0  0  0  0
    0.8324   -0.0765    3.7508 C   0  0  0  0  0  0  0  0  0  0  0  0
    1.6382   -0.0838    4.8750 C   0  0  0  0  0  0  0  0  0  0  0  0
    1.1955   -0.0000    2.4301 O   0  0  0  0  0  0  0  0  0  0  0  0
    0.0000   -0.0000    1.7465 C   0  0  0  0  0  0  0  0  0  0  0  0
   -1.0594   -0.0648    2.4899 N   0  0  0  0  0  0  0  0  0  0  0  0
    0.0000    0.0000    0.0000 S   0  0  0  0  0  0  0  0  0  0  0  0
   -3.7376   -2.1812   12.3557 H   0  0  0  0  0  0  0  0  0  0  0  0
   -4.1671   -3.1758   11.0278 H   0  0  0  0  0  0  0  0  0  0  0  0
    1.3018   -0.3901   11.7253 H   0  0  0  0  0  0  0  0  0  0  0  0
    0.6131    0.6888   10.5102 H   0  0  0  0  0  0  0  0  0  0  0  0
    2.6092   -1.6092   10.0730 H   0  0  0  0  0  0  0  0  0  0  0  0
    2.8084    0.1054    9.6249 H   0  0  0  0  0  0  0  0  0  0  0  0
    1.3586   -3.0611    8.4494 H   0  0  0  0  0  0  0  0  0  0  0  0
    0.2595   -2.2594    7.3225 H   0  0  0  0  0  0  0  0  0  0  0  0
   -0.9175   -0.2762    7.1525 H   0  0  0  0  0  0  0  0  0  0  0  0
   -2.3171   -0.2202    5.0815 H   0  0  0  0  0  0  0  0  0  0  0  0
    2.7239   -0.0001    4.8283 H   0  0  0  0  0  0  0  0  0  0  0  0
    2.0655    0.9103   -0.4666 Au  0  0  0  0  0  0  0  0  0  0  0  0
  2  1  3  0  0  0  0
  3  2  1  0  0  0  0
  4  3  2  0  0  0  0
  4  5  1  0  0  0  0
  5 25  1  0  0  0  0
  6  4  1  0  0  0  0
  7  6  1  0  0  0  0
  7  8  2  0  0  0  0
  8  9  1  0  0  0  0
  8  3  1  0  0  0  0
  9 27  1  0  0  0  0
 10 29  1  0  0  0  0
 10  9  1  0  0  0  0
 11 10  1  0  0  0  0
 12 11  1  0  0  0  0
 12 31  1  0  0  0  0
 12  7  1  0  0  0  0
 13 14  2  0  0  0  0
 13 11  1  0  0  0  0
 15 16  1  0  0  0  0
 15 13  1  1  0  0  0
 16 33  1  0  0  0  0
 17 34  1  0  0  0  0
 17 16  2  0  0  0  0
 18 17  1  0  0  0  0
 19 18  1  0  0  0  0
 19 20  2  0  0  0  0
 20 15  1  0  0  0  0
 21 19  1  0  0  0  0
 22 21  1  0  0  0  0
 22 23  2  0  0  0  0
 23 18  2  0  0  0  0
 24 22  1  0  0  0  0
 26  5  1  0  0  0  0
 28  9  1  0  0  0  0
 30 10  1  0  0  0  0
 32 12  1  0  0  0  0
 35 20  1  0  0  0  0
 36 24  1  0  0  0  0
M  RAD  1  15   2
M  END
