035-843-595.xyz
 OpenBabel07262113423D
Cc1nc(ccc1NC(=O)c1cccnc1S)N1CCOCC1
 41 43  0  0  1  0  0  0  0  0999 V2000
   -2.6256    2.9442   -0.9035 C   0  0  0  0  0  0  0  0  0  0  0  0
   -3.8201    2.0405   -0.7310 C   0  0  0  0  0  0  0  0  0  0  0  0
   -4.7862    2.1313   -1.6410 N   0  0  0  0  0  0  0  0  0  0  0  0
   -5.8882    1.3684   -1.5589 C   0  0  0  0  0  0  0  0  0  0  0  0
   -6.0552    0.4506   -0.4954 C   0  0  0  0  0  0  0  0  0  0  0  0
   -5.0548    0.3435    0.4617 C   0  0  0  0  0  0  0  0  0  0  0  0
   -3.9019    1.1399    0.3569 C   0  0  1  0  0  0  0  0  0  0  0  0
   -2.8261    1.0751    1.2657 N   0  0  0  0  0  0  0  0  0  0  0  0
   -2.5613    0.0628    2.1506 C   0  0  0  0  0  0  0  0  0  0  0  0
   -3.3889   -0.7441    2.5485 O   0  0  0  0  0  0  0  0  0  0  0  0
   -1.1399    0.0194    2.6374 C   0  0  1  0  0  0  0  0  0  0  0  0
   -0.9257   -0.0822    4.0163 C   0  0  0  0  0  0  0  0  0  0  0  0
    0.3730   -0.0944    4.5197 C   0  0  0  0  0  0  0  0  0  0  0  0
    1.4263   -0.0160    3.6043 C   0  0  0  0  0  0  0  0  0  0  0  0
    1.2389    0.0000    2.2861 N   0  0  0  0  0  0  0  0  0  0  0  0
    0.0000   -0.0000    1.7974 C   0  0  0  0  0  0  0  0  0  0  0  0
    0.0000    0.0000    0.0000 S   0  0  0  0  0  0  0  0  0  0  0  0
   -6.8364    1.5162   -2.5453 N   0  0  0  0  0  0  0  0  0  0  0  0
   -6.7115    2.5251   -3.5857 C   0  0  0  0  0  0  0  0  0  0  0  0
   -8.0156    3.3022   -3.7198 C   0  0  0  0  0  0  0  0  0  0  0  0
   -9.1556    2.4615   -3.8738 O   0  0  0  0  0  0  0  0  0  0  0  0
   -8.9045    1.0812   -3.7532 C   0  0  0  0  0  0  0  0  0  0  0  0
   -8.0719    0.7513   -2.5187 C   0  0  0  0  0  0  0  0  0  0  0  0
   -2.5260    3.6458   -0.0566 H   0  0  0  0  0  0  0  0  0  0  0  0
   -2.7475    3.5283   -1.8234 H   0  0  0  0  0  0  0  0  0  0  0  0
   -1.6858    2.3706   -0.9715 H   0  0  0  0  0  0  0  0  0  0  0  0
   -6.9501   -0.1622   -0.4042 H   0  0  0  0  0  0  0  0  0  0  0  0
   -5.1490   -0.3440    1.2991 H   0  0  0  0  0  0  0  0  0  0  0  0
   -2.0160    1.6241    1.0007 H   0  0  0  0  0  0  0  0  0  0  0  0
   -1.7932   -0.1371    4.6778 H   0  0  0  0  0  0  0  0  0  0  0  0
    0.5675   -0.1590    5.5917 H   0  0  0  0  0  0  0  0  0  0  0  0
    2.4661    0.0132    3.9491 H   0  0  0  0  0  0  0  0  0  0  0  0
   -1.8562   -1.2194   -0.6572 Au  0  0  0  0  0  0  0  0  0  0  0  0
   -5.8915    3.1986   -3.3105 H   0  0  0  0  0  0  0  0  0  0  0  0
   -6.4369    2.0633   -4.5527 H   0  0  0  0  0  0  0  0  0  0  0  0
   -7.9558    3.9799   -4.5902 H   0  0  0  0  0  0  0  0  0  0  0  0
   -8.1616    3.9260   -2.8187 H   0  0  0  0  0  0  0  0  0  0  0  0
   -8.4054    0.6796   -4.6580 H   0  0  0  0  0  0  0  0  0  0  0  0
   -9.8834    0.5851   -3.6770 H   0  0  0  0  0  0  0  0  0  0  0  0
   -8.6584    0.9859   -1.6090 H   0  0  0  0  0  0  0  0  0  0  0  0
   -7.8661   -0.3358   -2.4999 H   0  0  0  0  0  0  0  0  0  0  0  0
  1  2  1  0  0  0  0
  1 24  1  0  0  0  0
  2  7  1  0  0  0  0
  3  4  2  0  0  0  0
  3  2  2  0  0  0  0
  4  5  1  0  0  0  0
  5 27  1  0  0  0  0
  5  6  2  0  0  0  0
  6 28  1  0  0  0  0
  7  6  1  0  0  0  0
  7  8  1  6  0  0  0
  8  9  1  0  0  0  0
  9 10  2  0  0  0  0
 11  9  1  6  0  0  0
 11 12  1  0  0  0  0
 12 13  2  0  0  0  0
 12 30  1  0  0  0  0
 13 31  1  0  0  0  0
 14 32  1  0  0  0  0
 14 13  1  0  0  0  0
 15 14  2  0  0  0  0
 16 15  2  0  0  0  0
 16 11  1  0  0  0  0
 17 16  1  0  0  0  0
 18 23  1  0  0  0  0
 18  4  1  0  0  0  0
 19 34  1  0  0  0  0
 19 18  1  0  0  0  0
 20 19  1  0  0  0  0
 20 37  1  0  0  0  0
 21 22  1  0  0  0  0
 21 20  1  0  0  0  0
 22 39  1  0  0  0  0
 22 23  1  0  0  0  0
 23 41  1  0  0  0  0
 23 40  1  0  0  0  0
 25  1  1  0  0  0  0
 26  1  1  0  0  0  0
 29  8  1  0  0  0  0
 33 17  1  0  0  0  0
 35 19  1  0  0  0  0
 36 20  1  0  0  0  0
 38 22  1  0  0  0  0
M  RAD  2   7   2  11   2
M  END
