035-869-938.xyz
 OpenBabel07262113423D
SC1=N/C(=C\c2ccccc2C(F)(F)F)/C(=O)N1c1ccccc1
 35 37  0  0  0  0  0  0  0  0999 V2000
    1.7268   -1.6595    7.5009 F   0  0  0  0  0  0  0  0  0  0  0  0
    2.4489   -0.5375    7.6852 C   0  0  0  0  0  0  0  0  0  0  0  0
    1.5718    0.4516    7.9528 F   0  0  0  0  0  0  0  0  0  0  0  0
    3.1794   -0.7204    8.7979 F   0  0  0  0  0  0  0  0  0  0  0  0
    3.3103   -0.2189    6.4840 C   0  0  0  0  0  0  0  0  0  0  0  0
    4.6929   -0.1398    6.6606 C   0  0  0  0  0  0  0  0  0  0  0  0
    5.5337    0.1394    5.5818 C   0  0  0  0  0  0  0  0  0  0  0  0
    4.9821    0.3382    4.3143 C   0  0  0  0  0  0  0  0  0  0  0  0
    3.6051    0.2584    4.1262 C   0  0  0  0  0  0  0  0  0  0  0  0
    2.7317   -0.0198    5.2003 C   0  0  0  0  0  0  0  0  0  0  0  0
    1.2897   -0.0881    5.0019 C   0  0  0  0  0  0  0  0  0  0  0  0
    0.5938   -0.0671    3.8345 C   0  0  0  0  0  0  0  0  0  0  0  0
    1.0521   -0.0000    2.5219 N   0  0  0  0  0  0  0  0  0  0  0  0
   -0.0000    0.0000    1.7496 C   0  0  0  0  0  0  0  0  0  0  0  0
    0.0000    0.0000    0.0000 S   0  0  0  0  0  0  0  0  0  0  0  0
   -1.2110   -0.0502    2.4392 N   0  0  0  0  0  0  0  0  0  0  0  0
   -0.9035   -0.1228    3.8245 C   0  0  0  0  0  0  0  0  0  0  0  0
   -1.7034   -0.2072    4.7244 O   0  0  0  0  0  0  0  0  0  0  0  0
   -2.5262   -0.0435    1.9016 C   0  0  0  0  0  0  0  0  0  0  0  0
   -2.9070    0.9421    0.9817 C   0  0  0  0  0  0  0  0  0  0  0  0
   -4.1994    0.9331    0.4538 C   0  0  0  0  0  0  0  0  0  0  0  0
   -5.1197   -0.0351    0.8630 C   0  0  0  0  0  0  0  0  0  0  0  0
   -4.7420   -0.9994    1.8024 C   0  0  0  0  0  0  0  0  0  0  0  0
   -3.4467   -1.0119    2.3205 C   0  0  0  0  0  0  0  0  0  0  0  0
    5.1128   -0.2999    7.6533 H   0  0  0  0  0  0  0  0  0  0  0  0
    6.6132    0.2013    5.7348 H   0  0  0  0  0  0  0  0  0  0  0  0
    5.6310    0.5607    3.4636 H   0  0  0  0  0  0  0  0  0  0  0  0
    3.1694    0.4132    3.1407 H   0  0  0  0  0  0  0  0  0  0  0  0
    0.6508   -0.1674    5.8817 H   0  0  0  0  0  0  0  0  0  0  0  0
    2.2899   -0.1930   -0.3002 Au  0  0  0  0  0  0  0  0  0  0  0  0
   -2.1948    1.7146    0.6886 H   0  0  0  0  0  0  0  0  0  0  0  0
   -4.4903    1.6974   -0.2703 H   0  0  0  0  0  0  0  0  0  0  0  0
   -6.1331   -0.0347    0.4554 H   0  0  0  0  0  0  0  0  0  0  0  0
   -5.4596   -1.7544    2.1313 H   0  0  0  0  0  0  0  0  0  0  0  0
   -3.1455   -1.7603    3.0531 H   0  0  0  0  0  0  0  0  0  0  0  0
  1  2  1  0  0  0  0
  2  3  1  0  0  0  0
  2  4  1  0  0  0  0
  5  6  1  0  0  0  0
  5  2  1  0  0  0  0
  6 25  1  0  0  0  0
  7 26  1  0  0  0  0
  7  6  2  0  0  0  0
  8  7  1  0  0  0  0
  9  8  2  0  0  0  0
  9 10  1  0  0  0  0
 10  5  2  0  0  0  0
 11 10  1  0  0  0  0
 11 29  1  0  0  0  0
 12 11  1  0  0  0  0
 13 12  2  0  0  0  0
 14 16  1  0  0  0  0
 14 13  2  0  0  0  0
 15 14  1  0  0  0  0
 16 17  1  0  0  0  0
 17 12  1  0  0  0  0
 17 18  2  0  0  0  0
 19 24  1  0  0  0  0
 19 16  1  0  0  0  0
 20 19  2  0  0  0  0
 21 22  2  0  0  0  0
 21 20  1  0  0  0  0
 22 23  1  0  0  0  0
 23 34  1  0  0  0  0
 23 24  2  0  0  0  0
 24 35  1  0  0  0  0
 27  8  1  0  0  0  0
 28  9  1  0  0  0  0
 30 15  1  0  0  0  0
 31 20  1  0  0  0  0
 32 21  1  0  0  0  0
 33 22  1  0  0  0  0
M  RAD  1  11   2
M  END
