035-832-667.xyz
 OpenBabel07262113413D
O=C(N1CCN(CC1)C(=O)c1cccnc1S)Cc1ccccc1F
 43 45  0  0  1  0  0  0  0  0999 V2000
   -4.1958    7.3394   -1.7277 F   0  0  0  0  0  0  0  0  0  0  0  0
   -5.2601    7.7213   -1.0000 C   0  0  0  0  0  0  0  0  0  0  0  0
   -6.0852    8.7283   -1.4857 C   0  0  0  0  0  0  0  0  0  0  0  0
   -7.1836    9.1270   -0.7189 C   0  0  0  0  0  0  0  0  0  0  0  0
   -7.4353    8.5175    0.5126 C   0  0  0  0  0  0  0  0  0  0  0  0
   -6.5872    7.5072    0.9753 C   0  0  0  0  0  0  0  0  0  0  0  0
   -5.4807    7.0906    0.2280 C   0  0  0  0  0  0  0  0  0  0  0  0
   -4.5614    5.9920    0.6769 C   0  0  0  0  0  0  0  0  0  0  0  0
   -4.7984    4.6863   -0.0940 C   0  0  0  0  0  0  0  0  0  0  0  0
   -5.6396    4.5960   -0.9700 O   0  0  0  0  0  0  0  0  0  0  0  0
   -4.0009    3.6279    0.2698 N   0  0  0  0  0  0  0  0  0  0  0  0
   -3.0321    3.6768    1.3609 C   0  0  0  0  0  0  0  0  0  0  0  0
   -2.1469    2.4362    1.3427 C   0  0  0  0  0  0  0  0  0  0  0  0
   -2.9564    1.2250    1.4127 N   0  0  0  0  0  0  0  0  0  0  0  0
   -4.2133    1.2158    0.6603 C   0  0  0  0  0  0  0  0  0  0  0  0
   -4.2135    2.3328   -0.3708 C   0  0  0  0  0  0  0  0  0  0  0  0
   -2.5565    0.0641    1.9989 C   0  0  0  0  0  0  0  0  0  0  0  0
   -3.2804   -0.9282    2.0411 O   0  0  0  0  0  0  0  0  0  0  0  0
   -1.1726    0.0361    2.5869 C   0  0  1  0  0  0  0  0  0  0  0  0
   -1.0207   -0.0371    3.9734 C   0  0  0  0  0  0  0  0  0  0  0  0
    0.2598   -0.0492    4.5276 C   0  0  0  0  0  0  0  0  0  0  0  0
    1.3498    0.0020    3.6553 C   0  0  0  0  0  0  0  0  0  0  0  0
    1.2189    0.0000    2.3289 N   0  0  0  0  0  0  0  0  0  0  0  0
   -0.0000    0.0000    1.7932 C   0  0  0  0  0  0  0  0  0  0  0  0
    0.0000    0.0000    0.0000 S   0  0  0  0  0  0  0  0  0  0  0  0
   -5.8594    9.1809   -2.4527 H   0  0  0  0  0  0  0  0  0  0  0  0
   -7.8425    9.9161   -1.0884 H   0  0  0  0  0  0  0  0  0  0  0  0
   -8.2930    8.8267    1.1135 H   0  0  0  0  0  0  0  0  0  0  0  0
   -6.7864    7.0256    1.9364 H   0  0  0  0  0  0  0  0  0  0  0  0
   -3.5105    6.2929    0.5337 H   0  0  0  0  0  0  0  0  0  0  0  0
   -4.6899    5.8070    1.7551 H   0  0  0  0  0  0  0  0  0  0  0  0
   -3.5405    3.7479    2.3410 H   0  0  0  0  0  0  0  0  0  0  0  0
   -2.3825    4.5605    1.2661 H   0  0  0  0  0  0  0  0  0  0  0  0
   -1.4701    2.4695    2.2053 H   0  0  0  0  0  0  0  0  0  0  0  0
   -1.5167    2.4264    0.4371 H   0  0  0  0  0  0  0  0  0  0  0  0
   -4.3182    0.2356    0.1708 H   0  0  0  0  0  0  0  0  0  0  0  0
   -5.0711    1.3221    1.3469 H   0  0  0  0  0  0  0  0  0  0  0  0
   -3.4350    2.1414   -1.1305 H   0  0  0  0  0  0  0  0  0  0  0  0
   -5.1766    2.3800   -0.8929 H   0  0  0  0  0  0  0  0  0  0  0  0
   -1.9091   -0.0668    4.6090 H   0  0  0  0  0  0  0  0  0  0  0  0
    0.4105   -0.0935    5.6077 H   0  0  0  0  0  0  0  0  0  0  0  0
    2.3742    0.0270    4.0438 H   0  0  0  0  0  0  0  0  0  0  0  0
   -1.7091   -1.4725   -0.5029 Au  0  0  0  0  0  0  0  0  0  0  0  0
  1  2  1  0  0  0  0
  2  7  1  0  0  0  0
  3  2  2  0  0  0  0
  3  4  1  0  0  0  0
  4  5  2  0  0  0  0
  5  6  1  0  0  0  0
  5 28  1  0  0  0  0
  6 29  1  0  0  0  0
  7  8  1  0  0  0  0
  7  6  2  0  0  0  0
  8 31  1  0  0  0  0
  9 11  1  0  0  0  0
  9  8  1  0  0  0  0
 10  9  2  0  0  0  0
 11 12  1  0  0  0  0
 12 32  1  0  0  0  0
 13 12  1  0  0  0  0
 13 14  1  0  0  0  0
 13 34  1  0  0  0  0
 14 17  1  0  0  0  0
 15 37  1  0  0  0  0
 15 14  1  0  0  0  0
 16 11  1  0  0  0  0
 16 15  1  0  0  0  0
 17 18  2  0  0  0  0
 19 17  1  6  0  0  0
 19 20  1  0  0  0  0
 20 21  2  0  0  0  0
 20 40  1  0  0  0  0
 21 41  1  0  0  0  0
 22 42  1  0  0  0  0
 22 21  1  0  0  0  0
 23 22  2  0  0  0  0
 24 23  2  0  0  0  0
 24 19  1  0  0  0  0
 25 24  1  0  0  0  0
 26  3  1  0  0  0  0
 27  4  1  0  0  0  0
 30  8  1  0  0  0  0
 33 12  1  0  0  0  0
 35 13  1  0  0  0  0
 36 15  1  0  0  0  0
 38 16  1  0  0  0  0
 39 16  1  0  0  0  0
 43 25  1  0  0  0  0
M  RAD  1  19   2
M  END
