035-834-248.xyz
 OpenBabel07262113413D
Fc1ccc(cc1)n1c(S)ncc1C(=O)Nc1ccccn1
 33 35  0  0  1  0  0  0  0  0999 V2000
   -6.2597   -0.3192    0.5168 F   0  0  0  0  0  0  0  0  0  0  0  0
   -5.0267   -0.2163    1.0270 C   0  0  0  0  0  0  0  0  0  0  0  0
   -4.3321    0.9830    0.8880 C   0  0  0  0  0  0  0  0  0  0  0  0
   -3.0470    1.0863    1.4198 C   0  0  0  0  0  0  0  0  0  0  0  0
   -2.4773   -0.0034    2.0786 C   0  0  0  0  0  0  0  0  0  0  0  0
   -3.1847   -1.2037    2.2097 C   0  0  0  0  0  0  0  0  0  0  0  0
   -4.4728   -1.3144    1.6838 C   0  0  0  0  0  0  0  0  0  0  0  0
   -1.1322    0.0746    2.5473 N   0  0  0  0  0  0  0  0  0  0  0  0
   -0.0000   -0.0000    1.7518 C   0  0  0  0  0  0  0  0  0  0  0  0
    0.0000    0.0000    0.0000 S   0  0  0  0  0  0  0  0  0  0  0  0
    1.1029    0.0000    2.4875 N   0  0  0  0  0  0  0  0  0  0  0  0
    0.6957    0.0737    3.7793 C   0  0  0  0  0  0  0  0  0  0  0  0
   -0.6919    0.0975    3.8648 C   0  0  1  0  0  0  0  0  0  0  0  0
   -1.6187    0.2055    5.0098 C   0  0  0  0  0  0  0  0  0  0  0  0
   -2.8112    0.4373    4.8730 O   0  0  0  0  0  0  0  0  0  0  0  0
   -1.0060    0.0280    6.2302 N   0  0  0  0  0  0  0  0  0  0  0  0
   -1.5573    0.1183    7.5123 C   0  0  0  0  0  0  0  0  0  0  0  0
   -2.9058    0.4324    7.7654 C   0  0  0  0  0  0  0  0  0  0  0  0
   -3.3098    0.4899    9.0969 C   0  0  0  0  0  0  0  0  0  0  0  0
   -2.3882    0.2385   10.1177 C   0  0  0  0  0  0  0  0  0  0  0  0
   -1.0765   -0.0656    9.7483 C   0  0  0  0  0  0  0  0  0  0  0  0
   -0.6679   -0.1250    8.4812 N   0  0  0  0  0  0  0  0  0  0  0  0
   -4.8034    1.8180    0.3676 H   0  0  0  0  0  0  0  0  0  0  0  0
   -2.4751    2.0085    1.3157 H   0  0  0  0  0  0  0  0  0  0  0  0
   -2.7269   -2.0429    2.7354 H   0  0  0  0  0  0  0  0  0  0  0  0
   -5.0543   -2.2324    1.7817 H   0  0  0  0  0  0  0  0  0  0  0  0
   -1.4904   -1.7117   -0.4855 Au  0  0  0  0  0  0  0  0  0  0  0  0
    1.4167    0.1235    4.5960 H   0  0  0  0  0  0  0  0  0  0  0  0
   -0.0217   -0.2180    6.2551 H   0  0  0  0  0  0  0  0  0  0  0  0
   -3.5841    0.6158    6.9364 H   0  0  0  0  0  0  0  0  0  0  0  0
   -4.3487    0.7315    9.3348 H   0  0  0  0  0  0  0  0  0  0  0  0
   -2.6754    0.2757   11.1699 H   0  0  0  0  0  0  0  0  0  0  0  0
   -0.3175   -0.2714   10.5116 H   0  0  0  0  0  0  0  0  0  0  0  0
  1  2  1  0  0  0  0
  2  7  1  0  0  0  0
  3  2  2  0  0  0  0
  3  4  1  0  0  0  0
  4  5  2  0  0  0  0
  5  6  1  0  0  0  0
  5  8  1  0  0  0  0
  6 25  1  0  0  0  0
  7 26  1  0  0  0  0
  7  6  2  0  0  0  0
  8 13  1  0  0  0  0
  9 11  2  0  0  0  0
  9  8  1  0  0  0  0
 10  9  1  0  0  0  0
 11 12  2  0  0  0  0
 12 13  1  0  0  0  0
 12 28  1  0  0  0  0
 13 14  1  6  0  0  0
 14 16  1  0  0  0  0
 15 14  2  0  0  0  0
 16 29  1  0  0  0  0
 16 17  1  0  0  0  0
 17 18  1  0  0  0  0
 17 22  2  0  0  0  0
 18 19  2  0  0  0  0
 19 31  1  0  0  0  0
 19 20  1  0  0  0  0
 20 32  1  0  0  0  0
 21 20  1  0  0  0  0
 21 33  1  0  0  0  0
 22 21  2  0  0  0  0
 23  3  1  0  0  0  0
 24  4  1  0  0  0  0
 27 10  1  0  0  0  0
 30 18  1  0  0  0  0
M  RAD  2  13   2  20   2
M  END
