035-844-349.xyz
 OpenBabel07262113423D
O=C(N1CCOC(C1)c1ccc(o1)C)Cc1sc(nc1C)S
 40 43  0  0  1  0  0  0  0  0999 V2000
    5.3042    4.1498   -0.7336 C   0  0  0  0  0  0  0  0  0  0  0  0
    3.8745    4.2401   -0.3493 C   0  0  0  0  0  0  0  0  0  0  0  0
    2.7276    4.5563   -1.0109 C   0  0  0  0  0  0  0  0  0  0  0  0
    1.6322    4.3932   -0.0700 C   0  0  2  0  0  0  0  0  0  0  0  0
    2.2426    4.0141    1.1298 C   0  0  2  0  0  0  0  0  0  0  0  0
    3.5667    3.9108    0.9567 O   0  0  0  0  0  0  0  0  0  0  0  0
    1.6633    3.6174    2.4497 C   0  0  1  0  0  0  0  0  0  0  0  0
    2.4688    3.8204    3.7377 C   0  0  0  0  0  0  0  0  0  0  0  0
    1.7461    3.0216    4.7329 N   0  0  0  0  0  0  0  0  0  0  0  0
    0.3506    3.4258    4.8832 C   0  0  0  0  0  0  0  0  0  0  0  0
   -0.3861    3.5229    3.5383 C   0  0  0  0  0  0  0  0  0  0  0  0
    0.3901    4.2172    2.5720 O   0  0  0  0  0  0  0  0  0  0  0  0
    2.2858    1.7891    5.0522 C   0  0  0  0  0  0  0  0  0  0  0  0
    3.4732    1.5584    4.9059 O   0  0  0  0  0  0  0  0  0  0  0  0
    1.3319    0.6401    5.4216 C   0  0  0  0  0  0  0  0  0  0  0  0
    0.6233    0.2166    4.1617 C   0  0  2  0  0  0  0  0  0  0  0  0
    1.5248   -0.0000    2.6722 S   0  0  0  0  0  0  0  0  0  0  0  0
   -0.0000    0.0000    1.7730 C   0  0  0  0  0  0  0  0  0  0  0  0
    0.0000    0.0000    0.0000 S   0  0  0  0  0  0  0  0  0  0  0  0
   -1.0480    0.0502    2.5418 N   0  0  0  0  0  0  0  0  0  0  0  0
   -0.7243    0.1641    3.8800 C   0  0  0  0  0  0  0  0  0  0  0  0
   -1.8460    0.2956    4.8653 C   0  0  0  0  0  0  0  0  0  0  0  0
    5.4314    4.4707   -1.7760 H   0  0  0  0  0  0  0  0  0  0  0  0
    5.9309    4.7878   -0.0897 H   0  0  0  0  0  0  0  0  0  0  0  0
    5.6747    3.1157   -0.6392 H   0  0  0  0  0  0  0  0  0  0  0  0
    2.6495    4.8612   -2.0513 H   0  0  0  0  0  0  0  0  0  0  0  0
    0.6240    4.7974   -0.1513 H   0  0  0  0  0  0  0  0  0  0  0  0
    1.5429    2.5211    2.3900 H   0  0  0  0  0  0  0  0  0  0  0  0
    2.4902    4.8841    4.0241 H   0  0  0  0  0  0  0  0  0  0  0  0
    3.4894    3.4325    3.6561 H   0  0  0  0  0  0  0  0  0  0  0  0
   -0.1812    2.7340    5.5466 H   0  0  0  0  0  0  0  0  0  0  0  0
    0.3415    4.4176    5.3691 H   0  0  0  0  0  0  0  0  0  0  0  0
   -0.6326    2.5211    3.1535 H   0  0  0  0  0  0  0  0  0  0  0  0
   -1.3209    4.0880    3.6626 H   0  0  0  0  0  0  0  0  0  0  0  0
    1.9738   -0.1535    5.8291 H   0  0  0  0  0  0  0  0  0  0  0  0
    0.5956    0.9114    6.1903 H   0  0  0  0  0  0  0  0  0  0  0  0
    0.9132    2.1488   -0.2187 Au  0  0  0  0  0  0  0  0  0  0  0  0
   -2.4491    1.1945    4.6533 H   0  0  0  0  0  0  0  0  0  0  0  0
   -1.4880    0.3455    5.9026 H   0  0  0  0  0  0  0  0  0  0  0  0
   -2.5248   -0.5672    4.7791 H   0  0  0  0  0  0  0  0  0  0  0  0
  1 25  1  0  0  0  0
  1  2  1  0  0  0  0
  1 24  1  0  0  0  0
  2  6  1  0  0  0  0
  3  2  2  0  0  0  0
  3  4  1  0  0  0  0
  4 27  1  1  0  0  0
  5  4  1  6  0  0  0
  5  7  1  0  0  0  0
  6  5  1  0  0  0  0
  7 28  1  6  0  0  0
  7 12  1  0  0  0  0
  7  8  1  0  0  0  0
  8 29  1  0  0  0  0
  8  9  1  0  0  0  0
  9 10  1  0  0  0  0
  9 13  1  0  0  0  0
 10 32  1  0  0  0  0
 10 31  1  0  0  0  0
 11 34  1  0  0  0  0
 11 10  1  0  0  0  0
 12 11  1  0  0  0  0
 13 15  1  0  0  0  0
 14 13  2  0  0  0  0
 15 35  1  0  0  0  0
 15 36  1  0  0  0  0
 16 17  1  6  0  0  0
 16 15  1  0  0  0  0
 18 20  2  0  0  0  0
 18 17  1  0  0  0  0
 19 18  1  0  0  0  0
 20 21  2  0  0  0  0
 21 16  1  0  0  0  0
 21 22  1  0  0  0  0
 22 39  1  0  0  0  0
 23  1  1  0  0  0  0
 26  3  1  0  0  0  0
 30  8  1  0  0  0  0
 33 11  1  0  0  0  0
 37  4  1  0  0  0  0
 37 19  1  0  0  0  0
 38 22  1  0  0  0  0
 40 22  1  0  0  0  0
M  RAD  2   5   2  16   2
M  END
