039-061-456.xyz
 OpenBabel07262113423D
Cc1cc(ccc1NC(=O)c1cccnc1S)N1CCCC1
 41 43  0  0  1  0  0  0  0  0999 V2000
   -2.6946   -2.5936   -1.3092 C   0  0  0  0  0  0  0  0  0  0  0  0
   -3.9545   -1.8260   -0.9930 C   0  0  0  0  0  0  0  0  0  0  0  0
   -5.1035   -2.0305   -1.7575 C   0  0  0  0  0  0  0  0  0  0  0  0
   -6.3114   -1.3413   -1.5045 C   0  0  0  0  0  0  0  0  0  0  0  0
   -6.3195   -0.4211   -0.4335 C   0  0  0  0  0  0  0  0  0  0  0  0
   -5.1813   -0.2022    0.3353 C   0  0  0  0  0  0  0  0  0  0  0  0
   -3.9889   -0.8935    0.0702 C   0  0  0  0  0  0  0  0  0  0  0  0
   -2.8081   -0.6985    0.8180 N   0  0  0  0  0  0  0  0  0  0  0  0
   -2.6238    0.0523    1.9445 C   0  0  0  0  0  0  0  0  0  0  0  0
   -3.5149    0.6493    2.5319 O   0  0  0  0  0  0  0  0  0  0  0  0
   -1.2205    0.0577    2.5077 C   0  0  2  0  0  0  0  0  0  0  0  0
   -1.1329    0.1836    3.8997 C   0  0  0  0  0  0  0  0  0  0  0  0
    0.1058    0.1877    4.5343 C   0  0  0  0  0  0  0  0  0  0  0  0
    1.2417    0.0782    3.7317 C   0  0  0  0  0  0  0  0  0  0  0  0
    1.1875   -0.0000    2.4030 N   0  0  0  0  0  0  0  0  0  0  0  0
   -0.0000    0.0000    1.7852 C   0  0  0  0  0  0  0  0  0  0  0  0
    0.0000    0.0000    0.0000 S   0  0  0  0  0  0  0  0  0  0  0  0
   -7.4321   -1.5614   -2.2719 N   0  0  0  0  0  0  0  0  0  0  0  0
   -8.6615   -0.7956   -2.1358 C   0  0  0  0  0  0  0  0  0  0  0  0
   -9.4710   -1.1914   -3.3759 C   0  0  0  0  0  0  0  0  0  0  0  0
   -9.0079   -2.6277   -3.6478 C   0  0  0  0  0  0  0  0  0  0  0  0
   -7.5141   -2.5805   -3.3061 C   0  0  0  0  0  0  0  0  0  0  0  0
   -2.3604   -3.2016   -0.4500 H   0  0  0  0  0  0  0  0  0  0  0  0
   -2.8524   -3.2775   -2.1543 H   0  0  0  0  0  0  0  0  0  0  0  0
   -1.8577   -1.9252   -1.5726 H   0  0  0  0  0  0  0  0  0  0  0  0
   -5.0497   -2.7440   -2.5800 H   0  0  0  0  0  0  0  0  0  0  0  0
   -7.2283    0.1271   -0.1861 H   0  0  0  0  0  0  0  0  0  0  0  0
   -5.2061    0.5014    1.1630 H   0  0  0  0  0  0  0  0  0  0  0  0
   -1.9880   -1.1825    0.4676 H   0  0  0  0  0  0  0  0  0  0  0  0
   -2.0662    0.2799    4.4576 H   0  0  0  0  0  0  0  0  0  0  0  0
    0.1920    0.2728    5.6188 H   0  0  0  0  0  0  0  0  0  0  0  0
    2.2435    0.0619    4.1749 H   0  0  0  0  0  0  0  0  0  0  0  0
    2.2808   -0.2097   -0.3589 Au  0  0  0  0  0  0  0  0  0  0  0  0
   -8.4562    0.2881   -2.1003 H   0  0  0  0  0  0  0  0  0  0  0  0
   -9.1997   -1.0524   -1.2005 H   0  0  0  0  0  0  0  0  0  0  0  0
   -9.1982   -0.5405   -4.2229 H   0  0  0  0  0  0  0  0  0  0  0  0
  -10.5561   -1.1022   -3.2210 H   0  0  0  0  0  0  0  0  0  0  0  0
   -9.1973   -2.9624   -4.6781 H   0  0  0  0  0  0  0  0  0  0  0  0
   -9.5241   -3.3255   -2.9680 H   0  0  0  0  0  0  0  0  0  0  0  0
   -7.1397   -3.5529   -2.9420 H   0  0  0  0  0  0  0  0  0  0  0  0
   -6.9036   -2.3118   -4.1926 H   0  0  0  0  0  0  0  0  0  0  0  0
  1  2  1  0  0  0  0
  1 23  1  0  0  0  0
  2  7  2  0  0  0  0
  3  4  2  0  0  0  0
  3  2  1  0  0  0  0
  4  5  1  0  0  0  0
  5 27  1  0  0  0  0
  5  6  2  0  0  0  0
  6 28  1  0  0  0  0
  7  6  1  0  0  0  0
  7  8  1  0  0  0  0
  8  9  1  0  0  0  0
  9 10  2  0  0  0  0
 11  9  1  6  0  0  0
 11 12  1  0  0  0  0
 12 30  1  0  0  0  0
 12 13  2  0  0  0  0
 13 31  1  0  0  0  0
 14 32  1  0  0  0  0
 14 13  1  0  0  0  0
 15 14  2  0  0  0  0
 16 15  2  0  0  0  0
 16 11  1  0  0  0  0
 17 16  1  0  0  0  0
 18 19  1  0  0  0  0
 18  4  1  0  0  0  0
 19 34  1  0  0  0  0
 19 35  1  0  0  0  0
 20 37  1  0  0  0  0
 20 19  1  0  0  0  0
 21 20  1  0  0  0  0
 21 22  1  0  0  0  0
 21 39  1  0  0  0  0
 22 40  1  0  0  0  0
 22 18  1  0  0  0  0
 24  1  1  0  0  0  0
 25  1  1  0  0  0  0
 26  3  1  0  0  0  0
 29  8  1  0  0  0  0
 33 17  1  0  0  0  0
 36 20  1  0  0  0  0
 38 21  1  0  0  0  0
 41 22  1  0  0  0  0
M  RAD  1  11   2
M  END
