039-252-625.xyz
 OpenBabel07262113423D
Fc1ccc(cc1)n1c(S)ncc1C(=O)Nc1cc(F)cc(c1)F
 34 36  0  0  1  0  0  0  0  0999 V2000
   -6.2403    0.4064    0.2606 F   0  0  0  0  0  0  0  0  0  0  0  0
   -5.0159    0.3170    0.7845 C   0  0  0  0  0  0  0  0  0  0  0  0
   -4.3075   -0.8763    0.6530 C   0  0  0  0  0  0  0  0  0  0  0  0
   -3.0310   -0.9684    1.2094 C   0  0  0  0  0  0  0  0  0  0  0  0
   -2.4785    0.1313    1.8781 C   0  0  0  0  0  0  0  0  0  0  0  0
   -3.2004    1.3270    1.9904 C   0  0  0  0  0  0  0  0  0  0  0  0
   -4.4809    1.4209    1.4495 C   0  0  0  0  0  0  0  0  0  0  0  0
   -1.1823    0.0269    2.4632 N   0  0  0  0  0  0  0  0  0  0  0  0
   -0.0000   -0.0000    1.7606 C   0  0  0  0  0  0  0  0  0  0  0  0
    0.0000    0.0000    0.0000 S   0  0  0  0  0  0  0  0  0  0  0  0
    1.0475   -0.0000    2.5691 N   0  0  0  0  0  0  0  0  0  0  0  0
    0.5452    0.0372    3.8377 C   0  0  0  0  0  0  0  0  0  0  0  0
   -0.8364    0.0523    3.8283 C   0  0  2  0  0  0  0  0  0  0  0  0
   -1.7137    0.0316    5.0175 C   0  0  0  0  0  0  0  0  0  0  0  0
   -1.2554    0.2565    6.1260 O   0  0  0  0  0  0  0  0  0  0  0  0
   -3.0419   -0.2745    4.7845 N   0  0  0  0  0  0  0  0  0  0  0  0
   -4.1097   -0.2831    5.6863 C   0  0  0  0  0  0  0  0  0  0  0  0
   -3.9539   -0.0581    7.0642 C   0  0  0  0  0  0  0  0  0  0  0  0
   -5.0913   -0.0831    7.8655 C   0  0  0  0  0  0  0  0  0  0  0  0
   -4.9466    0.1309    9.1786 F   0  0  0  0  0  0  0  0  0  0  0  0
   -6.3725   -0.3219    7.3738 C   0  0  0  0  0  0  0  0  0  0  0  0
   -6.4861   -0.5411    6.0033 C   0  0  0  0  0  0  0  0  0  0  0  0
   -7.6992   -0.7725    5.4846 F   0  0  0  0  0  0  0  0  0  0  0  0
   -5.3900   -0.5250    5.1508 C   0  0  0  0  0  0  0  0  0  0  0  0
   -4.7622   -1.7153    0.1243 H   0  0  0  0  0  0  0  0  0  0  0  0
   -2.4557   -1.8918    1.1293 H   0  0  0  0  0  0  0  0  0  0  0  0
   -2.7549    2.1738    2.5145 H   0  0  0  0  0  0  0  0  0  0  0  0
   -5.0693    2.3361    1.5289 H   0  0  0  0  0  0  0  0  0  0  0  0
    2.2953    0.1102   -0.2684 Au  0  0  0  0  0  0  0  0  0  0  0  0
    1.1805    0.0349    4.7210 H   0  0  0  0  0  0  0  0  0  0  0  0
   -3.2976   -0.4935    3.8300 H   0  0  0  0  0  0  0  0  0  0  0  0
   -2.9730    0.1289    7.4910 H   0  0  0  0  0  0  0  0  0  0  0  0
   -7.2425   -0.3373    8.0291 H   0  0  0  0  0  0  0  0  0  0  0  0
   -5.5390   -0.6945    4.0829 H   0  0  0  0  0  0  0  0  0  0  0  0
  1  2  1  0  0  0  0
  2  7  1  0  0  0  0
  3  2  2  0  0  0  0
  3  4  1  0  0  0  0
  4  5  2  0  0  0  0
  5  6  1  0  0  0  0
  5  8  1  0  0  0  0
  6 27  1  0  0  0  0
  7 28  1  0  0  0  0
  7  6  2  0  0  0  0
  8 13  1  0  0  0  0
  9  8  1  0  0  0  0
  9 11  2  0  0  0  0
 10  9  1  0  0  0  0
 11 12  2  0  0  0  0
 12 30  1  0  0  0  0
 13 12  1  0  0  0  0
 13 14  1  1  0  0  0
 14 15  2  0  0  0  0
 16 14  1  0  0  0  0
 16 17  1  0  0  0  0
 17 18  1  0  0  0  0
 18 32  1  0  0  0  0
 18 19  2  0  0  0  0
 19 20  1  0  0  0  0
 21 19  1  0  0  0  0
 21 33  1  0  0  0  0
 22 21  2  0  0  0  0
 23 22  1  0  0  0  0
 24 17  2  0  0  0  0
 24 22  1  0  0  0  0
 25  3  1  0  0  0  0
 26  4  1  0  0  0  0
 29 10  1  0  0  0  0
 31 16  1  0  0  0  0
 34 24  1  0  0  0  0
M  RAD  1  13   2
M  END
