039-275-087.xyz
 OpenBabel07262113423D
Fc1ccc(cc1)NC(=O)c1cnc(n1c1ccc(cc1)F)S
 34 36  0  0  1  0  0  0  0  0999 V2000
   -3.6981   -0.3632   11.1419 F   0  0  0  0  0  0  0  0  0  0  0  0
   -3.1448   -0.3648    9.9187 C   0  0  0  0  0  0  0  0  0  0  0  0
   -1.8385   -0.8200    9.7614 C   0  0  0  0  0  0  0  0  0  0  0  0
   -1.2714   -0.8178    8.4888 C   0  0  0  0  0  0  0  0  0  0  0  0
   -1.9992   -0.3671    7.3728 C   0  0  0  0  0  0  0  0  0  0  0  0
   -1.3573   -0.3943    6.1232 N   0  0  0  0  0  0  0  0  0  0  0  0
   -1.8450    0.0025    4.8962 C   0  0  0  0  0  0  0  0  0  0  0  0
   -2.9908    0.3805    4.7015 O   0  0  0  0  0  0  0  0  0  0  0  0
   -0.8361   -0.0630    3.8201 C   0  0  2  0  0  0  0  0  0  0  0  0
    0.5486   -0.0389    3.8350 C   0  0  0  0  0  0  0  0  0  0  0  0
    1.0520   -0.0000    2.5679 N   0  0  0  0  0  0  0  0  0  0  0  0
    0.0000   -0.0000    1.7613 C   0  0  0  0  0  0  0  0  0  0  0  0
    0.0000    0.0000    0.0000 S   0  0  0  0  0  0  0  0  0  0  0  0
   -1.1777   -0.0285    2.4652 N   0  0  0  0  0  0  0  0  0  0  0  0
   -2.4817   -0.0869    1.8835 C   0  0  0  0  0  0  0  0  0  0  0  0
   -3.2574   -1.2406    2.0245 C   0  0  0  0  0  0  0  0  0  0  0  0
   -4.5201   -1.3042    1.4401 C   0  0  0  0  0  0  0  0  0  0  0  0
   -4.9817   -0.2089    0.7114 C   0  0  0  0  0  0  0  0  0  0  0  0
   -6.1929   -0.2698    0.1443 F   0  0  0  0  0  0  0  0  0  0  0  0
   -4.2177    0.9449    0.5564 C   0  0  0  0  0  0  0  0  0  0  0  0
   -2.9593    1.0053    1.1548 C   0  0  0  0  0  0  0  0  0  0  0  0
   -3.3186    0.0866    7.5537 C   0  0  0  0  0  0  0  0  0  0  0  0
   -3.8841    0.0863    8.8295 C   0  0  0  0  0  0  0  0  0  0  0  0
   -1.2796   -1.1684   10.6315 H   0  0  0  0  0  0  0  0  0  0  0  0
   -0.2444   -1.1707    8.3592 H   0  0  0  0  0  0  0  0  0  0  0  0
   -0.4233   -0.7851    6.1252 H   0  0  0  0  0  0  0  0  0  0  0  0
    1.2073   -0.0069    4.7030 H   0  0  0  0  0  0  0  0  0  0  0  0
    2.2893   -0.1532   -0.2848 Au  0  0  0  0  0  0  0  0  0  0  0  0
   -2.8691   -2.0843    2.5965 H   0  0  0  0  0  0  0  0  0  0  0  0
   -5.1512   -2.1889    1.5366 H   0  0  0  0  0  0  0  0  0  0  0  0
   -4.6176    1.7812   -0.0187 H   0  0  0  0  0  0  0  0  0  0  0  0
   -2.3453    1.9020    1.0625 H   0  0  0  0  0  0  0  0  0  0  0  0
   -3.8850    0.4293    6.6920 H   0  0  0  0  0  0  0  0  0  0  0  0
   -4.9064    0.4351    8.9865 H   0  0  0  0  0  0  0  0  0  0  0  0
  2  1  1  0  0  0  0
  3  2  1  0  0  0  0
  3 24  1  0  0  0  0
  4  3  2  0  0  0  0
  5 22  2  0  0  0  0
  5  4  1  0  0  0  0
  6 26  1  0  0  0  0
  6  5  1  0  0  0  0
  7  6  1  0  0  0  0
  8  7  2  0  0  0  0
  9 10  1  0  0  0  0
  9  7  1  1  0  0  0
 10 27  1  0  0  0  0
 11 10  2  0  0  0  0
 12 14  1  0  0  0  0
 12 11  2  0  0  0  0
 13 12  1  0  0  0  0
 14  9  1  0  0  0  0
 15 16  1  0  0  0  0
 15 14  1  0  0  0  0
 16 29  1  0  0  0  0
 17 30  1  0  0  0  0
 17 16  2  0  0  0  0
 18 17  1  0  0  0  0
 19 18  1  0  0  0  0
 20 18  2  0  0  0  0
 20 21  1  0  0  0  0
 21 15  2  0  0  0  0
 22 23  1  0  0  0  0
 23 34  1  0  0  0  0
 23  2  2  0  0  0  0
 25  4  1  0  0  0  0
 28 13  1  0  0  0  0
 31 20  1  0  0  0  0
 32 21  1  0  0  0  0
 33 22  1  0  0  0  0
M  RAD  1   9   2
M  END
