039-258-973.xyz
 OpenBabel07262113423D
Fc1cc2nc([nH]c2c(c1)C(=O)N1CCN(CC1)S(=O)(=O)c1ccccc1Cl)S
 45 48  0  0  0  0  0  0  0  0999 V2000
   -0.9720    0.1967    7.4152 F   0  0  0  0  0  0  0  0  0  0  0  0
   -0.3850    0.1175    6.2071 C   0  0  0  0  0  0  0  0  0  0  0  0
   -1.1922    0.0659    5.0747 C   0  0  0  0  0  0  0  0  0  0  0  0
   -0.5401    0.0166    3.8364 C   0  0  0  0  0  0  0  0  0  0  0  0
   -1.0516   -0.0011    2.5529 N   0  0  0  0  0  0  0  0  0  0  0  0
   -0.0000   -0.0000    1.7551 C   0  0  0  0  0  0  0  0  0  0  0  0
    1.1905   -0.0000    2.4456 N   0  0  0  0  0  0  0  0  0  0  0  0
    0.8807    0.0096    3.7881 C   0  0  0  0  0  0  0  0  0  0  0  0
    1.6900    0.0143    4.9342 C   0  0  0  0  0  0  0  0  0  0  0  0
    1.0143    0.0928    6.1646 C   0  0  0  0  0  0  0  0  0  0  0  0
    3.1701    0.0136    4.7237 C   0  0  0  0  0  0  0  0  0  0  0  0
    3.6290    0.4200    3.6534 O   0  0  0  0  0  0  0  0  0  0  0  0
    4.0105   -0.4376    5.7073 N   0  0  0  0  0  0  0  0  0  0  0  0
    3.6318   -1.3171    6.8185 C   0  0  0  0  0  0  0  0  0  0  0  0
    4.7267   -2.3489    7.0613 C   0  0  0  0  0  0  0  0  0  0  0  0
    5.9910   -1.6837    7.3708 N   0  0  0  0  0  0  0  0  0  0  0  0
    6.2432   -0.3879    6.7320 C   0  0  0  0  0  0  0  0  0  0  0  0
    5.4448   -0.2999    5.4414 C   0  0  0  0  0  0  0  0  0  0  0  0
    6.7574   -1.9705    8.8250 S   0  0  0  0  0  0  0  0  0  0  0  0
    6.0717   -3.0821    9.4807 O   0  0  0  0  0  0  0  0  0  0  0  0
    6.9531   -0.6927    9.5171 O   0  0  0  0  0  0  0  0  0  0  0  0
    8.3996   -2.5065    8.3149 C   0  0  0  0  0  0  0  0  0  0  0  0
    9.4874   -1.7547    8.7695 C   0  0  0  0  0  0  0  0  0  0  0  0
   10.7892   -2.1279    8.4337 C   0  0  0  0  0  0  0  0  0  0  0  0
   11.0026   -3.2574    7.6404 C   0  0  0  0  0  0  0  0  0  0  0  0
    9.9216   -4.0130    7.1820 C   0  0  0  0  0  0  0  0  0  0  0  0
    8.6175   -3.6422    7.5196 C   0  0  0  0  0  0  0  0  0  0  0  0
    7.3037   -4.6144    6.9194 Cl  0  0  0  0  0  0  0  0  0  0  0  0
    0.0000    0.0000    0.0000 S   0  0  0  0  0  0  0  0  0  0  0  0
   -2.2788    0.0826    5.1591 H   0  0  0  0  0  0  0  0  0  0  0  0
    2.1395    0.1113    2.1016 H   0  0  0  0  0  0  0  0  0  0  0  0
    1.5470    0.1680    7.1102 H   0  0  0  0  0  0  0  0  0  0  0  0
    3.4707   -0.7435    7.7481 H   0  0  0  0  0  0  0  0  0  0  0  0
    2.6941   -1.8333    6.5761 H   0  0  0  0  0  0  0  0  0  0  0  0
    4.4552   -2.9960    7.9040 H   0  0  0  0  0  0  0  0  0  0  0  0
    4.8484   -2.9923    6.1739 H   0  0  0  0  0  0  0  0  0  0  0  0
    5.9745    0.4432    7.4054 H   0  0  0  0  0  0  0  0  0  0  0  0
    7.3155   -0.2901    6.4976 H   0  0  0  0  0  0  0  0  0  0  0  0
    5.6157    0.6701    4.9576 H   0  0  0  0  0  0  0  0  0  0  0  0
    5.7847   -1.0701    4.7263 H   0  0  0  0  0  0  0  0  0  0  0  0
    9.2849   -0.8781    9.3858 H   0  0  0  0  0  0  0  0  0  0  0  0
   11.6337   -1.5362    8.7923 H   0  0  0  0  0  0  0  0  0  0  0  0
   12.0177   -3.5577    7.3714 H   0  0  0  0  0  0  0  0  0  0  0  0
   10.0755   -4.8963    6.5608 H   0  0  0  0  0  0  0  0  0  0  0  0
   -2.2964    0.0943   -0.2721 Au  0  0  0  0  0  0  0  0  0  0  0  0
  2  1  1  0  0  0  0
  3 30  1  0  0  0  0
  3  2  1  0  0  0  0
  4  3  1  0  0  0  0
  5  4  2  0  0  0  0
  6  7  1  0  0  0  0
  6  5  2  0  0  0  0
  7  8  1  0  0  0  0
  8  4  1  0  0  0  0
  8  9  2  0  0  0  0
  9 10  1  0  0  0  0
 10  2  2  0  0  0  0
 10 32  1  0  0  0  0
 11  9  1  0  0  0  0
 11 13  1  0  0  0  0
 12 11  2  0  0  0  0
 13 14  1  0  0  0  0
 14 15  1  0  0  0  0
 14 33  1  0  0  0  0
 15 16  1  0  0  0  0
 15 35  1  0  0  0  0
 16 19  1  0  0  0  0
 17 16  1  0  0  0  0
 17 37  1  0  0  0  0
 18 13  1  0  0  0  0
 18 17  1  0  0  0  0
 19 20  2  0  0  0  0
 19 21  2  0  0  0  0
 22 23  2  0  0  0  0
 22 19  1  0  0  0  0
 23 41  1  0  0  0  0
 24 23  1  0  0  0  0
 24 42  1  0  0  0  0
 25 24  2  0  0  0  0
 26 27  2  0  0  0  0
 26 25  1  0  0  0  0
 27 22  1  0  0  0  0
 28 27  1  0  0  0  0
 29  6  1  0  0  0  0
 31  7  1  0  0  0  0
 34 14  1  0  0  0  0
 36 15  1  0  0  0  0
 38 17  1  0  0  0  0
 39 18  1  0  0  0  0
 40 18  1  0  0  0  0
 43 25  1  0  0  0  0
 44 26  1  0  0  0  0
 45 29  1  0  0  0  0
M  RAD  1   3   2
M  END
