039-261-591.xyz
 OpenBabel07262113423D
CCc1cc(=O)[nH]c(n1)c1cccc(c1)n1c(S)nc2c(c1=O)cccc2
 43 46  0  0  1  0  0  0  0  0999 V2000
   -7.4002    3.3812   -2.2403 C   0  0  0  0  0  0  0  0  0  0  0  0
   -8.1551    3.2190   -0.9159 C   0  0  0  0  0  0  0  0  0  0  0  0
   -7.2249    3.1434    0.2656 C   0  0  0  0  0  0  0  0  0  0  0  0
   -7.2107    4.0920    1.2544 C   0  0  0  0  0  0  0  0  0  0  0  0
   -6.3034    3.9839    2.3805 C   0  0  0  0  0  0  0  0  0  0  0  0
   -6.1954    4.7311    3.3336 O   0  0  0  0  0  0  0  0  0  0  0  0
   -5.4843    2.8299    2.2833 N   0  0  0  0  0  0  0  0  0  0  0  0
   -5.5315    1.9404    1.2533 C   0  0  0  0  0  0  0  0  0  0  0  0
   -6.3697    2.0653    0.2621 N   0  0  0  0  0  0  0  0  0  0  0  0
   -4.5830    0.8015    1.2698 C   0  0  0  0  0  0  0  0  0  0  0  0
   -4.9109   -0.3754    0.5728 C   0  0  0  0  0  0  0  0  0  0  0  0
   -4.0425   -1.4637    0.5892 C   0  0  0  0  0  0  0  0  0  0  0  0
   -2.8212   -1.3848    1.2655 C   0  0  0  0  0  0  0  0  0  0  0  0
   -2.4698   -0.1998    1.9103 C   0  0  0  0  0  0  0  0  0  0  0  0
   -3.3529    0.8825    1.9383 C   0  0  0  0  0  0  0  0  0  0  0  0
   -1.1837   -0.0693    2.5250 N   0  0  0  0  0  0  0  0  0  0  0  0
    0.0000   -0.0000    1.7827 C   0  0  0  0  0  0  0  0  0  0  0  0
    0.0000    0.0000    0.0000 S   0  0  0  0  0  0  0  0  0  0  0  0
    1.1714    0.0000    2.3189 N   0  0  0  0  0  0  0  0  0  0  0  0
    1.2958   -0.0864    3.6882 C   0  0  0  0  0  0  0  0  0  0  0  0
    0.1655   -0.0665    4.5382 C   0  0  1  0  0  0  0  0  0  0  0  0
   -1.1744   -0.0159    3.9501 C   0  0  0  0  0  0  0  0  0  0  0  0
   -2.2191    0.0355    4.5702 O   0  0  0  0  0  0  0  0  0  0  0  0
    0.3202   -0.1084    5.9343 C   0  0  0  0  0  0  0  0  0  0  0  0
    1.5920   -0.1816    6.4859 C   0  0  0  0  0  0  0  0  0  0  0  0
    2.7218   -0.2086    5.6446 C   0  0  0  0  0  0  0  0  0  0  0  0
    2.5815   -0.1589    4.2650 C   0  0  0  0  0  0  0  0  0  0  0  0
   -6.6813    2.5589   -2.3716 H   0  0  0  0  0  0  0  0  0  0  0  0
   -8.0960    3.3745   -3.0933 H   0  0  0  0  0  0  0  0  0  0  0  0
   -6.8414    4.3304   -2.2623 H   0  0  0  0  0  0  0  0  0  0  0  0
   -8.8684    4.0444   -0.7711 H   0  0  0  0  0  0  0  0  0  0  0  0
   -8.7376    2.2819   -0.9435 H   0  0  0  0  0  0  0  0  0  0  0  0
   -7.8864    4.9475    1.2432 H   0  0  0  0  0  0  0  0  0  0  0  0
   -4.8720    2.6697    3.0794 H   0  0  0  0  0  0  0  0  0  0  0  0
   -5.8598   -0.4116    0.0373 H   0  0  0  0  0  0  0  0  0  0  0  0
   -4.3120   -2.3831    0.0657 H   0  0  0  0  0  0  0  0  0  0  0  0
   -2.1224   -2.2219    1.2630 H   0  0  0  0  0  0  0  0  0  0  0  0
   -3.0443    1.7896    2.4586 H   0  0  0  0  0  0  0  0  0  0  0  0
   -1.7363    1.3977   -0.6332 Au  0  0  0  0  0  0  0  0  0  0  0  0
   -0.5771   -0.0859    6.5552 H   0  0  0  0  0  0  0  0  0  0  0  0
    1.7189   -0.2172    7.5699 H   0  0  0  0  0  0  0  0  0  0  0  0
    3.7207   -0.2652    6.0841 H   0  0  0  0  0  0  0  0  0  0  0  0
    3.4433   -0.1691    3.5960 H   0  0  0  0  0  0  0  0  0  0  0  0
  1  2  1  0  0  0  0
  2 31  1  0  0  0  0
  2  3  1  0  0  0  0
  3  4  1  0  0  0  0
  4  5  1  0  0  0  0
  5  6  2  0  0  0  0
  7  5  1  0  0  0  0
  7 34  1  0  0  0  0
  8 10  1  0  0  0  0
  8  7  1  0  0  0  0
  9  3  2  0  0  0  0
  9  8  2  0  0  0  0
 10 15  2  0  0  0  0
 11 12  2  0  0  0  0
 11 10  1  0  0  0  0
 12 13  1  0  0  0  0
 13 14  2  0  0  0  0
 14 15  1  0  0  0  0
 14 16  1  0  0  0  0
 15 38  1  0  0  0  0
 16 22  1  0  0  0  0
 17 19  2  0  0  0  0
 17 16  1  0  0  0  0
 18 17  1  0  0  0  0
 19 20  2  0  0  0  0
 20 27  1  0  0  0  0
 21 20  1  6  0  0  0
 21 24  1  0  0  0  0
 22 21  1  0  0  0  0
 22 23  2  0  0  0  0
 24 25  2  0  0  0  0
 24 40  1  0  0  0  0
 25 41  1  0  0  0  0
 26 42  1  0  0  0  0
 26 25  1  0  0  0  0
 27 26  2  0  0  0  0
 28  1  1  0  0  0  0
 29  1  1  0  0  0  0
 30  1  1  0  0  0  0
 32  2  1  0  0  0  0
 33  4  1  0  0  0  0
 35 11  1  0  0  0  0
 36 12  1  0  0  0  0
 37 13  1  0  0  0  0
 39 18  1  0  0  0  0
 43 27  1  0  0  0  0
M  RAD  2   4   2  21   2
M  END
