039-061-310.xyz
 OpenBabel07262113423D
Fc1cccc(c1)C(=O)N1CCN(CC1)C(=O)c1cccnc1S
 40 42  0  0  1  0  0  0  0  0999 V2000
   -8.7031    5.0894   -0.9517 F   0  0  0  0  0  0  0  0  0  0  0  0
   -7.7785    4.7072   -1.8451 C   0  0  0  0  0  0  0  0  0  0  0  0
   -8.1242    4.6344   -3.1919 C   0  0  0  0  0  0  0  0  0  0  0  0
   -7.1442    4.2548   -4.1138 C   0  0  0  0  0  0  0  0  0  0  0  0
   -5.8490    3.9566   -3.6892 C   0  0  0  0  0  0  0  0  0  0  0  0
   -5.5246    4.0086   -2.3258 C   0  0  0  0  0  0  0  0  0  0  0  0
   -6.4986    4.3964   -1.3953 C   0  0  0  0  0  0  0  0  0  0  0  0
   -4.0939    3.7526   -1.9322 C   0  0  0  0  0  0  0  0  0  0  0  0
   -3.1787    4.2029   -2.6067 O   0  0  0  0  0  0  0  0  0  0  0  0
   -3.8477    3.0312   -0.7910 N   0  0  0  0  0  0  0  0  0  0  0  0
   -4.7996    2.1507   -0.1163 C   0  0  0  0  0  0  0  0  0  0  0  0
   -4.1736    0.7920    0.1727 C   0  0  0  0  0  0  0  0  0  0  0  0
   -2.9550    0.9384    0.9677 N   0  0  0  0  0  0  0  0  0  0  0  0
   -2.3288    2.2578    0.9719 C   0  0  0  0  0  0  0  0  0  0  0  0
   -2.4406    2.8976   -0.4023 C   0  0  0  0  0  0  0  0  0  0  0  0
   -2.5693   -0.1227    1.7407 C   0  0  0  0  0  0  0  0  0  0  0  0
   -3.2522   -1.1285    1.8596 O   0  0  0  0  0  0  0  0  0  0  0  0
   -1.2450   -0.0204    2.4561 C   0  0  1  0  0  0  0  0  0  0  0  0
   -1.2242   -0.0999    3.8495 C   0  0  0  0  0  0  0  0  0  0  0  0
   -0.0062   -0.0960    4.5298 C   0  0  0  0  0  0  0  0  0  0  0  0
    1.1618   -0.0363    3.7689 C   0  0  0  0  0  0  0  0  0  0  0  0
    1.1642   -0.0000    2.4356 N   0  0  0  0  0  0  0  0  0  0  0  0
   -0.0000   -0.0000    1.7791 C   0  0  0  0  0  0  0  0  0  0  0  0
    0.0000    0.0000    0.0000 S   0  0  0  0  0  0  0  0  0  0  0  0
   -9.1420    4.8817   -3.4979 H   0  0  0  0  0  0  0  0  0  0  0  0
   -7.3966    4.2007   -5.1751 H   0  0  0  0  0  0  0  0  0  0  0  0
   -5.0694    3.6906   -4.4042 H   0  0  0  0  0  0  0  0  0  0  0  0
   -6.2767    4.4855   -0.3314 H   0  0  0  0  0  0  0  0  0  0  0  0
   -5.1555    2.6000    0.8285 H   0  0  0  0  0  0  0  0  0  0  0  0
   -5.6786    2.0037   -0.7545 H   0  0  0  0  0  0  0  0  0  0  0  0
   -3.9399    0.2774   -0.7766 H   0  0  0  0  0  0  0  0  0  0  0  0
   -4.8775    0.1520    0.7227 H   0  0  0  0  0  0  0  0  0  0  0  0
   -1.2693    2.1692    1.2316 H   0  0  0  0  0  0  0  0  0  0  0  0
   -2.8018    2.9083    1.7314 H   0  0  0  0  0  0  0  0  0  0  0  0
   -1.8884    2.2911   -1.1398 H   0  0  0  0  0  0  0  0  0  0  0  0
   -1.9744    3.8933   -0.4021 H   0  0  0  0  0  0  0  0  0  0  0  0
   -2.1713   -0.1670    4.3900 H   0  0  0  0  0  0  0  0  0  0  0  0
    0.0387   -0.1438    5.6189 H   0  0  0  0  0  0  0  0  0  0  0  0
    2.1443   -0.0238    4.2531 H   0  0  0  0  0  0  0  0  0  0  0  0
    2.2803    0.0891   -0.3699 Au  0  0  0  0  0  0  0  0  0  0  0  0
  2  7  1  0  0  0  0
  2  1  1  0  0  0  0
  3  2  2  0  0  0  0
  4  5  2  0  0  0  0
  4  3  1  0  0  0  0
  5  6  1  0  0  0  0
  6  8  1  0  0  0  0
  6  7  2  0  0  0  0
  7 28  1  0  0  0  0
  8 10  1  0  0  0  0
  9  8  2  0  0  0  0
 10 15  1  0  0  0  0
 10 11  1  0  0  0  0
 11 12  1  0  0  0  0
 11 29  1  0  0  0  0
 12 32  1  0  0  0  0
 12 13  1  0  0  0  0
 13 14  1  0  0  0  0
 13 16  1  0  0  0  0
 14 33  1  0  0  0  0
 14 34  1  0  0  0  0
 15 36  1  0  0  0  0
 15 14  1  0  0  0  0
 16 17  2  0  0  0  0
 18 16  1  6  0  0  0
 18 19  1  0  0  0  0
 19 37  1  0  0  0  0
 19 20  2  0  0  0  0
 20 38  1  0  0  0  0
 21 39  1  0  0  0  0
 21 20  1  0  0  0  0
 22 21  2  0  0  0  0
 23 22  2  0  0  0  0
 23 18  1  0  0  0  0
 24 23  1  0  0  0  0
 25  3  1  0  0  0  0
 26  4  1  0  0  0  0
 27  5  1  0  0  0  0
 30 11  1  0  0  0  0
 31 12  1  0  0  0  0
 35 15  1  0  0  0  0
 40 24  1  0  0  0  0
M  RAD  1  18   2
M  END
