039-267-262.xyz
 OpenBabel07262113423D
Sc1nc2ccccc2c(=O)n1c1cccc(c1)S(=O)(=O)NC1=NCCC1
 43 46  0  0  1  0  0  0  0  0999 V2000
    0.0000    0.0000    0.0000 S   0  0  0  0  0  0  0  0  0  0  0  0
   -0.0000   -0.0000    1.7753 C   0  0  0  0  0  0  0  0  0  0  0  0
    1.0943    0.0000    2.4646 N   0  0  0  0  0  0  0  0  0  0  0  0
    1.0169   -0.0314    3.8407 C   0  0  0  0  0  0  0  0  0  0  0  0
    2.2056   -0.0139    4.6019 C   0  0  0  0  0  0  0  0  0  0  0  0
    2.1472   -0.0536    5.9874 C   0  0  0  0  0  0  0  0  0  0  0  0
    0.9094   -0.1140    6.6576 C   0  0  0  0  0  0  0  0  0  0  0  0
   -0.2687   -0.1336    5.9256 C   0  0  0  0  0  0  0  0  0  0  0  0
   -0.2234   -0.0906    4.5208 C   0  0  1  0  0  0  0  0  0  0  0  0
   -1.4653   -0.1060    3.7485 C   0  0  0  0  0  0  0  0  0  0  0  0
   -2.5907   -0.1787    4.2115 O   0  0  0  0  0  0  0  0  0  0  0  0
   -1.2682   -0.0202    2.3439 N   0  0  0  0  0  0  0  0  0  0  0  0
   -2.4537    0.0262    1.5336 C   0  0  0  0  0  0  0  0  0  0  0  0
   -2.8485    1.2266    0.9309 C   0  0  0  0  0  0  0  0  0  0  0  0
   -4.0517    1.2879    0.2260 C   0  0  0  0  0  0  0  0  0  0  0  0
   -4.8907    0.1726    0.1693 C   0  0  0  0  0  0  0  0  0  0  0  0
   -4.4718   -1.0098    0.7753 C   0  0  0  0  0  0  0  0  0  0  0  0
   -3.2520   -1.1105    1.4377 C   0  0  0  0  0  0  0  0  0  0  0  0
   -5.6104   -2.3802    0.9380 S   0  0  0  0  0  0  0  0  0  0  0  0
   -6.7990   -2.0977    0.1498 O   0  0  0  0  0  0  0  0  0  0  0  0
   -4.8794   -3.6426    0.8182 O   0  0  0  0  0  0  0  0  0  0  0  0
   -5.9644   -2.3054    2.6096 N   0  0  0  0  0  0  0  0  0  0  0  0
   -6.1792   -1.1096    3.2849 C   0  0  0  0  0  0  0  0  0  0  0  0
   -6.5984   -0.0505    2.7136 N   0  0  0  0  0  0  0  0  0  0  0  0
   -6.6727    1.0152    3.7118 C   0  0  0  0  0  0  0  0  0  0  0  0
   -5.8893    0.5151    4.9530 C   0  0  0  0  0  0  0  0  0  0  0  0
   -5.8795   -1.0131    4.7688 C   0  0  0  0  0  0  0  0  0  0  0  0
    2.2886   -0.0631   -0.3326 Au  0  0  0  0  0  0  0  0  0  0  0  0
    3.1571    0.0302    4.0698 H   0  0  0  0  0  0  0  0  0  0  0  0
    3.0740   -0.0391    6.5663 H   0  0  0  0  0  0  0  0  0  0  0  0
    0.8802   -0.1453    7.7487 H   0  0  0  0  0  0  0  0  0  0  0  0
   -1.2461   -0.1802    6.4089 H   0  0  0  0  0  0  0  0  0  0  0  0
   -2.2134    2.1083    1.0291 H   0  0  0  0  0  0  0  0  0  0  0  0
   -4.3586    2.2246   -0.2431 H   0  0  0  0  0  0  0  0  0  0  0  0
   -5.8729    0.2109   -0.3010 H   0  0  0  0  0  0  0  0  0  0  0  0
   -2.9508   -2.0419    1.9168 H   0  0  0  0  0  0  0  0  0  0  0  0
   -5.4864   -3.0504    3.1077 H   0  0  0  0  0  0  0  0  0  0  0  0
   -7.7356    1.2190    3.9404 H   0  0  0  0  0  0  0  0  0  0  0  0
   -6.2575    1.9483    3.2977 H   0  0  0  0  0  0  0  0  0  0  0  0
   -6.3334    0.8371    5.9058 H   0  0  0  0  0  0  0  0  0  0  0  0
   -4.8522    0.8781    4.9124 H   0  0  0  0  0  0  0  0  0  0  0  0
   -6.6667   -1.5297    5.3462 H   0  0  0  0  0  0  0  0  0  0  0  0
   -4.9108   -1.4705    5.0217 H   0  0  0  0  0  0  0  0  0  0  0  0
  1  2  1  0  0  0  0
  2 12  1  0  0  0  0
  2  3  2  0  0  0  0
  3  4  2  0  0  0  0
  4  9  1  0  0  0  0
  4  5  1  0  0  0  0
  5  6  2  0  0  0  0
  6 30  1  0  0  0  0
  6  7  1  0  0  0  0
  7 31  1  0  0  0  0
  8 32  1  0  0  0  0
  8  7  2  0  0  0  0
  9 10  1  1  0  0  0
  9  8  1  0  0  0  0
 10 11  2  0  0  0  0
 12 10  1  0  0  0  0
 13 12  1  0  0  0  0
 14 33  1  0  0  0  0
 14 13  2  0  0  0  0
 15 14  1  0  0  0  0
 16 15  2  0  0  0  0
 16 17  1  0  0  0  0
 17 19  1  0  0  0  0
 17 18  2  0  0  0  0
 18 13  1  0  0  0  0
 18 36  1  0  0  0  0
 19 22  1  0  0  0  0
 20 19  2  0  0  0  0
 21 19  2  0  0  0  0
 22 37  1  0  0  0  0
 22 23  1  0  0  0  0
 23 27  1  0  0  0  0
 24 23  2  0  0  0  0
 24 25  1  0  0  0  0
 25 38  1  0  0  0  0
 25 26  1  0  0  0  0
 26 40  1  0  0  0  0
 27 26  1  0  0  0  0
 27 43  1  0  0  0  0
 27 42  1  0  0  0  0
 28  1  1  0  0  0  0
 29  5  1  0  0  0  0
 34 15  1  0  0  0  0
 35 16  1  0  0  0  0
 39 25  1  0  0  0  0
 41 26  1  0  0  0  0
M  RAD  1   9   2
M  END
