039-270-283.xyz
 OpenBabel07262113423D
Brc1ccc(cc1)c1cc(n(n1)c1ccccc1)n1c(S)nc2c1cccc2
 43 47  0  0  0  0  0  0  0  0999 V2000
    9.7135    1.2958   -1.8026 Br  0  0  0  0  0  0  0  0  0  0  0  0
    8.1079    0.8410   -0.8845 C   0  0  0  0  0  0  0  0  0  0  0  0
    7.9910   -0.4122   -0.2752 C   0  0  0  0  0  0  0  0  0  0  0  0
    6.8147   -0.7398    0.3946 C   0  0  0  0  0  0  0  0  0  0  0  0
    5.7453    0.1705    0.4668 C   0  0  0  0  0  0  0  0  0  0  0  0
    5.8871    1.4219   -0.1544 C   0  0  0  0  0  0  0  0  0  0  0  0
    7.0600    1.7624   -0.8282 C   0  0  0  0  0  0  0  0  0  0  0  0
    4.5092   -0.1907    1.1750 C   0  0  0  0  0  0  0  0  0  0  0  0
    3.3362    0.5913    1.3679 C   0  0  0  0  0  0  0  0  0  0  0  0
    2.4785   -0.2244    2.0751 C   0  0  0  0  0  0  0  0  0  0  0  0
    3.1344   -1.4229    2.2750 N   0  0  0  0  0  0  0  0  0  0  0  0
    4.3670   -1.3935    1.7398 N   0  0  0  0  0  0  0  0  0  0  0  0
    2.6971   -2.5729    2.9897 C   0  0  0  0  0  0  0  0  0  0  0  0
    3.6389   -3.2927    3.7353 C   0  0  0  0  0  0  0  0  0  0  0  0
    3.2367   -4.4243    4.4440 C   0  0  0  0  0  0  0  0  0  0  0  0
    1.9006   -4.8365    4.4210 C   0  0  0  0  0  0  0  0  0  0  0  0
    0.9686   -4.1161    3.6706 C   0  0  0  0  0  0  0  0  0  0  0  0
    1.3599   -2.9886    2.9459 C   0  0  0  0  0  0  0  0  0  0  0  0
    1.1788    0.0000    2.5274 N   0  0  0  0  0  0  0  0  0  0  0  0
   -0.0000   -0.0000    1.7515 C   0  0  0  0  0  0  0  0  0  0  0  0
    0.0000    0.0000    0.0000 S   0  0  0  0  0  0  0  0  0  0  0  0
   -1.0763    0.0876    2.4915 N   0  0  0  0  0  0  0  0  0  0  0  0
   -0.6432    0.1521    3.8031 C   0  0  0  0  0  0  0  0  0  0  0  0
    0.7720    0.0759    3.8555 C   0  0  0  0  0  0  0  0  0  0  0  0
    1.4849    0.0666    5.0551 C   0  0  0  0  0  0  0  0  0  0  0  0
    0.7329    0.1563    6.2265 C   0  0  0  0  0  0  0  0  0  0  0  0
   -0.6761    0.2456    6.1966 C   0  0  0  0  0  0  0  0  0  0  0  0
   -1.3792    0.2452    4.9946 C   0  0  0  0  0  0  0  0  0  0  0  0
    8.8159   -1.1243   -0.3265 H   0  0  0  0  0  0  0  0  0  0  0  0
    6.7089   -1.7144    0.8728 H   0  0  0  0  0  0  0  0  0  0  0  0
    5.0722    2.1471   -0.1175 H   0  0  0  0  0  0  0  0  0  0  0  0
    7.1599    2.7370   -1.3077 H   0  0  0  0  0  0  0  0  0  0  0  0
    3.1163    1.5993    1.0318 H   0  0  0  0  0  0  0  0  0  0  0  0
    4.6747   -2.9548    3.7420 H   0  0  0  0  0  0  0  0  0  0  0  0
    3.9734   -4.9840    5.0247 H   0  0  0  0  0  0  0  0  0  0  0  0
    1.5879   -5.7184    4.9841 H   0  0  0  0  0  0  0  0  0  0  0  0
   -0.0761   -4.4321    3.6383 H   0  0  0  0  0  0  0  0  0  0  0  0
    0.6232   -2.4498    2.3529 H   0  0  0  0  0  0  0  0  0  0  0  0
    1.2436   -1.8921   -0.4979 Au  0  0  0  0  0  0  0  0  0  0  0  0
    2.5732   -0.0096    5.0745 H   0  0  0  0  0  0  0  0  0  0  0  0
    1.2465    0.1566    7.1906 H   0  0  0  0  0  0  0  0  0  0  0  0
   -1.2225    0.3132    7.1400 H   0  0  0  0  0  0  0  0  0  0  0  0
   -2.4681    0.3086    4.9616 H   0  0  0  0  0  0  0  0  0  0  0  0
  1  2  1  0  0  0  0
  2  7  2  0  0  0  0
  2  3  1  0  0  0  0
  3  4  2  0  0  0  0
  4  5  1  0  0  0  0
  4 30  1  0  0  0  0
  5  8  1  0  0  0  0
  6 31  1  0  0  0  0
  6  5  2  0  0  0  0
  7  6  1  0  0  0  0
  8  9  1  0  0  0  0
  8 12  2  0  0  0  0
  9 10  2  0  0  0  0
 10 11  1  0  0  0  0
 10 19  1  0  0  0  0
 11 13  1  0  0  0  0
 12 11  1  0  0  0  0
 13 14  1  0  0  0  0
 14 34  1  0  0  0  0
 14 15  2  0  0  0  0
 15 35  1  0  0  0  0
 16 15  1  0  0  0  0
 16 36  1  0  0  0  0
 17 16  2  0  0  0  0
 18 13  2  0  0  0  0
 18 17  1  0  0  0  0
 19 24  1  0  0  0  0
 20 22  2  0  0  0  0
 20 19  1  0  0  0  0
 21 20  1  0  0  0  0
 22 23  2  0  0  0  0
 23 24  1  0  0  0  0
 23 28  1  0  0  0  0
 24 25  2  0  0  0  0
 25 40  1  0  0  0  0
 25 26  1  0  0  0  0
 26 41  1  0  0  0  0
 27 26  1  0  0  0  0
 27 42  1  0  0  0  0
 28 27  2  0  0  0  0
 29  3  1  0  0  0  0
 32  7  1  0  0  0  0
 33  9  1  0  0  0  0
 37 17  1  0  0  0  0
 38 18  1  0  0  0  0
 39 21  1  0  0  0  0
 43 28  1  0  0  0  0
M  RAD  1  26   2
M  END
