039-283-099.xyz
 OpenBabel07262113423D
Clc1cc(ccc1NS(=O)(=O)C)n1c(S)nc2c(c1=O)cccc2
 36 38  0  0  1  0  0  0  0  0999 V2000
   -4.7933   -2.7070   -0.2894 Cl  0  0  0  0  0  0  0  0  0  0  0  0
   -4.1101   -1.1915    0.2636 C   0  0  0  0  0  0  0  0  0  0  0  0
   -3.0099   -1.2056    1.1147 C   0  0  0  0  0  0  0  0  0  0  0  0
   -2.4339    0.0057    1.5009 C   0  0  0  0  0  0  0  0  0  0  0  0
   -2.9786    1.2189    1.0717 C   0  0  0  0  0  0  0  0  0  0  0  0
   -4.0955    1.2263    0.2430 C   0  0  0  0  0  0  0  0  0  0  0  0
   -4.6744    0.0203   -0.1845 C   0  0  0  0  0  0  0  0  0  0  0  0
   -5.7825    0.0207   -1.0484 N   0  0  0  0  0  0  0  0  0  0  0  0
   -5.6862    0.7585   -2.5803 S   0  0  0  0  0  0  0  0  0  0  0  0
   -6.8933    0.3260   -3.2740 O   0  0  0  0  0  0  0  0  0  0  0  0
   -5.3574    2.1665   -2.3831 O   0  0  0  0  0  0  0  0  0  0  0  0
   -4.2619   -0.0302   -3.3485 C   0  0  0  0  0  0  0  0  0  0  0  0
   -1.2691   -0.0032    2.3408 N   0  0  0  0  0  0  0  0  0  0  0  0
    0.0000    0.0000    1.7786 C   0  0  0  0  0  0  0  0  0  0  0  0
    0.0000    0.0000    0.0000 S   0  0  0  0  0  0  0  0  0  0  0  0
    1.0927    0.0000    2.4682 N   0  0  0  0  0  0  0  0  0  0  0  0
    1.0094   -0.0041    3.8467 C   0  0  0  0  0  0  0  0  0  0  0  0
   -0.2341   -0.0129    4.5230 C   0  0  1  0  0  0  0  0  0  0  0  0
   -1.4779   -0.0161    3.7475 C   0  0  0  0  0  0  0  0  0  0  0  0
   -2.6052   -0.0281    4.1978 O   0  0  0  0  0  0  0  0  0  0  0  0
   -0.2848   -0.0186    5.9274 C   0  0  0  0  0  0  0  0  0  0  0  0
    0.8917   -0.0150    6.6637 C   0  0  0  0  0  0  0  0  0  0  0  0
    2.1323   -0.0060    5.9974 C   0  0  0  0  0  0  0  0  0  0  0  0
    2.1955   -0.0008    4.6110 C   0  0  0  0  0  0  0  0  0  0  0  0
   -2.5860   -2.1509    1.4518 H   0  0  0  0  0  0  0  0  0  0  0  0
   -2.5234    2.1558    1.3949 H   0  0  0  0  0  0  0  0  0  0  0  0
   -4.5356    2.1610   -0.1015 H   0  0  0  0  0  0  0  0  0  0  0  0
   -6.2565   -0.8777   -1.1339 H   0  0  0  0  0  0  0  0  0  0  0  0
   -4.1591    0.4188   -4.3452 H   0  0  0  0  0  0  0  0  0  0  0  0
   -3.3733    0.1762   -2.7381 H   0  0  0  0  0  0  0  0  0  0  0  0
   -4.4583   -1.1074   -3.4199 H   0  0  0  0  0  0  0  0  0  0  0  0
    2.2909   -0.0122   -0.3250 Au  0  0  0  0  0  0  0  0  0  0  0  0
   -1.2653   -0.0255    6.4069 H   0  0  0  0  0  0  0  0  0  0  0  0
    0.8579   -0.0189    7.7551 H   0  0  0  0  0  0  0  0  0  0  0  0
    3.0575   -0.0031    6.5790 H   0  0  0  0  0  0  0  0  0  0  0  0
    3.1496    0.0060    4.0816 H   0  0  0  0  0  0  0  0  0  0  0  0
  1  2  1  0  0  0  0
  2  3  2  0  0  0  0
  3 25  1  0  0  0  0
  3  4  1  0  0  0  0
  4 13  1  0  0  0  0
  5 26  1  0  0  0  0
  5  4  2  0  0  0  0
  6  5  1  0  0  0  0
  7  6  2  0  0  0  0
  7  2  1  0  0  0  0
  8  7  1  0  0  0  0
  9 11  2  0  0  0  0
  9  8  1  0  0  0  0
 10  9  2  0  0  0  0
 12 30  1  0  0  0  0
 12  9  1  0  0  0  0
 13 19  1  0  0  0  0
 14 13  1  0  0  0  0
 14 16  2  0  0  0  0
 15 14  1  0  0  0  0
 16 17  2  0  0  0  0
 17 18  1  0  0  0  0
 17 24  1  0  0  0  0
 18 19  1  6  0  0  0
 18 21  1  0  0  0  0
 19 20  2  0  0  0  0
 21 33  1  0  0  0  0
 21 22  2  0  0  0  0
 22 34  1  0  0  0  0
 23 35  1  0  0  0  0
 23 22  1  0  0  0  0
 24 23  2  0  0  0  0
 27  6  1  0  0  0  0
 28  8  1  0  0  0  0
 29 12  1  0  0  0  0
 31 12  1  0  0  0  0
 32 15  1  0  0  0  0
 36 24  1  0  0  0  0
M  RAD  1  18   2
M  END
