039-283-026.xyz
 OpenBabel07262113423D
Sc1nc2ccccc2c(=O)n1Cc1ccc(o1)c1nc2c(s1)cccc2
 40 44  0  0  1  0  0  0  0  0999 V2000
    0.0000    0.0000    0.0000 S   0  0  0  0  0  0  0  0  0  0  0  0
    0.0000    0.0000    1.7774 C   0  0  0  0  0  0  0  0  0  0  0  0
   -1.1147   -0.0003    2.4383 N   0  0  0  0  0  0  0  0  0  0  0  0
   -1.0775   -0.0215    3.8149 C   0  0  0  0  0  0  0  0  0  0  0  0
   -2.2868   -0.0264    4.5436 C   0  0  0  0  0  0  0  0  0  0  0  0
   -2.2638   -0.0545    5.9303 C   0  0  0  0  0  0  0  0  0  0  0  0
   -1.0425   -0.0784    6.6326 C   0  0  0  0  0  0  0  0  0  0  0  0
    0.1547   -0.0732    5.9314 C   0  0  0  0  0  0  0  0  0  0  0  0
    0.1443   -0.0439    4.5260 C   0  0  2  0  0  0  0  0  0  0  0  0
    1.4059   -0.0353    3.7851 C   0  0  0  0  0  0  0  0  0  0  0  0
    2.5147   -0.0461    4.2882 O   0  0  0  0  0  0  0  0  0  0  0  0
    1.2516    0.0000    2.3730 N   0  0  0  0  0  0  0  0  0  0  0  0
    2.4884   -0.0353    1.5861 C   0  0  0  0  0  0  0  0  0  0  0  0
    2.6861   -1.3429    0.8966 C   0  0  0  0  0  0  0  0  0  0  0  0
    3.1170   -1.6991   -0.3570 C   0  0  0  0  0  0  0  0  0  0  0  0
    3.1176   -3.1261   -0.3951 C   0  0  0  0  0  0  0  0  0  0  0  0
    2.6766   -3.5423    0.8397 C   0  0  0  0  0  0  0  0  0  0  0  0
    2.4233   -2.4561    1.6259 O   0  0  0  0  0  0  0  0  0  0  0  0
    2.4361   -4.8468    1.4041 C   0  0  0  0  0  0  0  0  0  0  0  0
    2.6387   -5.9651    0.7735 N   0  0  0  0  0  0  0  0  0  0  0  0
    2.3154   -7.0487    1.5582 C   0  0  0  0  0  0  0  0  0  0  0  0
    1.8390   -6.7285    2.8608 C   0  0  2  0  0  0  0  0  0  0  0  0
    1.8137   -4.9926    3.0651 S   0  0  0  0  0  0  0  0  0  0  0  0
    1.4722   -7.7268    3.7691 C   0  0  0  0  0  0  0  0  0  0  0  0
    1.5841   -9.0568    3.3661 C   0  0  0  0  0  0  0  0  0  0  0  0
    2.0537   -9.3882    2.0805 C   0  0  0  0  0  0  0  0  0  0  0  0
    2.4194   -8.3976    1.1755 C   0  0  0  0  0  0  0  0  0  0  0  0
   -2.2840    0.2353   -0.3070 Au  0  0  0  0  0  0  0  0  0  0  0  0
   -3.2248   -0.0102    3.9865 H   0  0  0  0  0  0  0  0  0  0  0  0
   -3.2054   -0.0591    6.4851 H   0  0  0  0  0  0  0  0  0  0  0  0
   -1.0409   -0.1011    7.7243 H   0  0  0  0  0  0  0  0  0  0  0  0
    1.1207   -0.0909    6.4390 H   0  0  0  0  0  0  0  0  0  0  0  0
    3.2919    0.1426    2.3153 H   0  0  0  0  0  0  0  0  0  0  0  0
    2.4908    0.7756    0.8445 H   0  0  0  0  0  0  0  0  0  0  0  0
    3.3824   -1.0157   -1.1600 H   0  0  0  0  0  0  0  0  0  0  0  0
    3.3882   -3.7808   -1.2189 H   0  0  0  0  0  0  0  0  0  0  0  0
    1.1083   -7.4735    4.7666 H   0  0  0  0  0  0  0  0  0  0  0  0
    1.3030   -9.8525    4.0597 H   0  0  0  0  0  0  0  0  0  0  0  0
    2.1312  -10.4389    1.7922 H   0  0  0  0  0  0  0  0  0  0  0  0
    2.7854   -8.6379    0.1759 H   0  0  0  0  0  0  0  0  0  0  0  0
  1  2  1  0  0  0  0
  2 12  1  0  0  0  0
  2  3  2  0  0  0  0
  3  4  2  0  0  0  0
  4  9  1  0  0  0  0
  4  5  1  0  0  0  0
  5  6  2  0  0  0  0
  6 30  1  0  0  0  0
  6  7  1  0  0  0  0
  7 31  1  0  0  0  0
  8 32  1  0  0  0  0
  8  7  2  0  0  0  0
  9 10  1  1  0  0  0
  9  8  1  0  0  0  0
 10 11  2  0  0  0  0
 12 10  1  0  0  0  0
 13 33  1  0  0  0  0
 13 12  1  0  0  0  0
 14 13  1  0  0  0  0
 14 18  1  0  0  0  0
 15 14  2  0  0  0  0
 16 15  1  0  0  0  0
 16 17  2  0  0  0  0
 17 19  1  0  0  0  0
 17 18  1  0  0  0  0
 19 23  1  0  0  0  0
 20 19  2  0  0  0  0
 20 21  2  0  0  0  0
 22 21  1  1  0  0  0
 22 23  1  0  0  0  0
 22 24  1  0  0  0  0
 24 37  1  0  0  0  0
 25 24  2  0  0  0  0
 25 38  1  0  0  0  0
 26 25  1  0  0  0  0
 27 21  1  0  0  0  0
 27 26  2  0  0  0  0
 28  1  1  0  0  0  0
 29  5  1  0  0  0  0
 34 13  1  0  0  0  0
 35 15  1  0  0  0  0
 36 16  1  0  0  0  0
 39 26  1  0  0  0  0
 40 27  1  0  0  0  0
M  RAD  2   9   2  22   2
M  END
