039-277-957.xyz
 OpenBabel07262113423D
O=C(c1ccco1)Nc1ccc(cc1)n1c(S)nc2c(c1=O)cccc2
 39 42  0  0  1  0  0  0  0  0999 V2000
    6.2511   -2.2190   -1.4489 O   0  0  0  0  0  0  0  0  0  0  0  0
    6.5292   -1.0361   -1.5530 C   0  0  0  0  0  0  0  0  0  0  0  0
    7.6875   -0.5943   -2.3566 C   0  0  0  0  0  0  0  0  0  0  0  0
    8.6008   -1.3182   -3.0771 C   0  0  0  0  0  0  0  0  0  0  0  0
    9.5017   -0.3674   -3.6518 C   0  0  0  0  0  0  0  0  0  0  0  0
    9.0707    0.8643   -3.2392 C   0  0  0  0  0  0  0  0  0  0  0  0
    7.9723    0.7400   -2.4541 O   0  0  0  0  0  0  0  0  0  0  0  0
    5.8382    0.0011   -0.9665 N   0  0  0  0  0  0  0  0  0  0  0  0
    4.7044   -0.0555   -0.1487 C   0  0  0  0  0  0  0  0  0  0  0  0
    4.1774    1.1645    0.3166 C   0  0  0  0  0  0  0  0  0  0  0  0
    3.0528    1.1848    1.1314 C   0  0  0  0  0  0  0  0  0  0  0  0
    2.4336   -0.0157    1.4891 C   0  0  0  0  0  0  0  0  0  0  0  0
    2.9578   -1.2304    1.0414 C   0  0  0  0  0  0  0  0  0  0  0  0
    4.0834   -1.2624    0.2223 C   0  0  0  0  0  0  0  0  0  0  0  0
    1.2697    0.0000    2.3341 N   0  0  0  0  0  0  0  0  0  0  0  0
   -0.0000   -0.0000    1.7778 C   0  0  0  0  0  0  0  0  0  0  0  0
    0.0000    0.0000    0.0000 S   0  0  0  0  0  0  0  0  0  0  0  0
   -1.0937    0.0037    2.4685 N   0  0  0  0  0  0  0  0  0  0  0  0
   -1.0069    0.0093    3.8456 C   0  0  0  0  0  0  0  0  0  0  0  0
    0.2382    0.0186    4.5186 C   0  0  2  0  0  0  0  0  0  0  0  0
    1.4806    0.0193    3.7390 C   0  0  0  0  0  0  0  0  0  0  0  0
    2.6073    0.0339    4.1921 O   0  0  0  0  0  0  0  0  0  0  0  0
    0.2926    0.0265    5.9228 C   0  0  0  0  0  0  0  0  0  0  0  0
   -0.8815    0.0244    6.6630 C   0  0  0  0  0  0  0  0  0  0  0  0
   -2.1241    0.0149    6.0002 C   0  0  0  0  0  0  0  0  0  0  0  0
   -2.1910    0.0078    4.6142 C   0  0  0  0  0  0  0  0  0  0  0  0
    8.6085   -2.4009   -3.1705 H   0  0  0  0  0  0  0  0  0  0  0  0
   10.3593   -0.5704   -4.2890 H   0  0  0  0  0  0  0  0  0  0  0  0
    9.4249    1.8769   -3.4126 H   0  0  0  0  0  0  0  0  0  0  0  0
    6.2021    0.9289   -1.1553 H   0  0  0  0  0  0  0  0  0  0  0  0
    4.6595    2.1042    0.0343 H   0  0  0  0  0  0  0  0  0  0  0  0
    2.6453    2.1302    1.4923 H   0  0  0  0  0  0  0  0  0  0  0  0
    2.4715   -2.1620    1.3353 H   0  0  0  0  0  0  0  0  0  0  0  0
    4.4925   -2.2036   -0.1345 H   0  0  0  0  0  0  0  0  0  0  0  0
   -2.2907    0.0274   -0.3281 Au  0  0  0  0  0  0  0  0  0  0  0  0
    1.2749    0.0335    6.3987 H   0  0  0  0  0  0  0  0  0  0  0  0
   -0.8444    0.0297    7.7545 H   0  0  0  0  0  0  0  0  0  0  0  0
   -3.0478    0.0131    6.5844 H   0  0  0  0  0  0  0  0  0  0  0  0
   -3.1465    0.0007    4.0871 H   0  0  0  0  0  0  0  0  0  0  0  0
  2  1  2  0  0  0  0
  2  8  1  0  0  0  0
  3  2  1  0  0  0  0
  4  3  2  0  0  0  0
  5  6  2  0  0  0  0
  5  4  1  0  0  0  0
  6  7  1  0  0  0  0
  7  3  1  0  0  0  0
  8  9  1  0  0  0  0
  9 14  2  0  0  0  0
  9 10  1  0  0  0  0
 10 11  2  0  0  0  0
 11 12  1  0  0  0  0
 11 32  1  0  0  0  0
 12 15  1  0  0  0  0
 13 33  1  0  0  0  0
 13 12  2  0  0  0  0
 14 13  1  0  0  0  0
 15 21  1  0  0  0  0
 16 15  1  0  0  0  0
 16 18  2  0  0  0  0
 17 16  1  0  0  0  0
 18 19  2  0  0  0  0
 19 20  1  0  0  0  0
 19 26  1  0  0  0  0
 20 21  1  1  0  0  0
 20 23  1  0  0  0  0
 21 22  2  0  0  0  0
 23 36  1  0  0  0  0
 23 24  2  0  0  0  0
 24 37  1  0  0  0  0
 25 38  1  0  0  0  0
 25 24  1  0  0  0  0
 26 25  2  0  0  0  0
 27  4  1  0  0  0  0
 28  5  1  0  0  0  0
 29  6  1  0  0  0  0
 30  8  1  0  0  0  0
 31 10  1  0  0  0  0
 34 14  1  0  0  0  0
 35 17  1  0  0  0  0
 39 26  1  0  0  0  0
M  RAD  1  20   2
M  END
