039-253-712.xyz
 OpenBabel07262113423D
CC1CCC(CC1)NC(=O)c1ccc2c(c1)nc(n(c2=O)c1ccccc1F)S
 51 54  0  0  1  0  0  0  0  0999 V2000
  -10.6292    0.0687    7.2433 C   0  0  0  0  0  0  0  0  0  0  0  0
   -9.1650    0.3014    6.8758 C   0  0  2  0  0  0  0  0  0  0  0  0
   -8.9090    0.1574    5.3702 C   0  0  0  0  0  0  0  0  0  0  0  0
   -7.4822    0.5973    4.9884 C   0  0  0  0  0  0  0  0  0  0  0  0
   -6.4741    0.3611    6.1291 C   0  0  1  0  0  0  0  0  0  0  0  0
   -6.8693   -0.8677    6.9580 C   0  0  0  0  0  0  0  0  0  0  0  0
   -8.2241   -0.6441    7.6593 C   0  0  0  0  0  0  0  0  0  0  0  0
   -5.1243    0.2772    5.5972 N   0  0  0  0  0  0  0  0  0  0  0  0
   -4.0361    0.6723    6.3171 C   0  0  0  0  0  0  0  0  0  0  0  0
   -4.1209    1.1490    7.4400 O   0  0  0  0  0  0  0  0  0  0  0  0
   -2.6982    0.4894    5.6446 C   0  0  0  0  0  0  0  0  0  0  0  0
   -1.5570    0.4654    6.4759 C   0  0  0  0  0  0  0  0  0  0  0  0
   -0.2948    0.3069    5.9263 C   0  0  0  0  0  0  0  0  0  0  0  0
   -0.1453    0.1884    4.5340 C   0  0  1  0  0  0  0  0  0  0  0  0
   -1.2758    0.2281    3.6884 C   0  0  0  0  0  0  0  0  0  0  0  0
   -2.5530    0.3826    4.2642 C   0  0  0  0  0  0  0  0  0  0  0  0
   -1.1669    0.0995    2.3207 N   0  0  0  0  0  0  0  0  0  0  0  0
    0.0000   -0.0000    1.7819 C   0  0  0  0  0  0  0  0  0  0  0  0
    1.1877    0.0000    2.5176 N   0  0  0  0  0  0  0  0  0  0  0  0
    1.1884    0.0451    3.9433 C   0  0  0  0  0  0  0  0  0  0  0  0
    2.2331   -0.0038    4.5585 O   0  0  0  0  0  0  0  0  0  0  0  0
    2.4770   -0.0516    1.9063 C   0  0  0  0  0  0  0  0  0  0  0  0
    3.0224    1.0555    1.2569 C   0  0  0  0  0  0  0  0  0  0  0  0
    4.2683    0.9615    0.6337 C   0  0  0  0  0  0  0  0  0  0  0  0
    4.9785   -0.2414    0.6717 C   0  0  0  0  0  0  0  0  0  0  0  0
    4.4536   -1.3521    1.3410 C   0  0  0  0  0  0  0  0  0  0  0  0
    3.2098   -1.2425    1.9556 C   0  0  0  0  0  0  0  0  0  0  0  0
    2.6816   -2.3021    2.5747 F   0  0  0  0  0  0  0  0  0  0  0  0
    0.0000    0.0000    0.0000 S   0  0  0  0  0  0  0  0  0  0  0  0
  -10.7864    0.1500    8.3311 H   0  0  0  0  0  0  0  0  0  0  0  0
  -10.9541   -0.9397    6.9347 H   0  0  0  0  0  0  0  0  0  0  0  0
  -11.2908    0.7997    6.7512 H   0  0  0  0  0  0  0  0  0  0  0  0
   -8.9114    1.3417    7.1511 H   0  0  0  0  0  0  0  0  0  0  0  0
   -9.6486    0.7380    4.7959 H   0  0  0  0  0  0  0  0  0  0  0  0
   -9.0677   -0.8993    5.0909 H   0  0  0  0  0  0  0  0  0  0  0  0
   -7.4631    1.6630    4.7086 H   0  0  0  0  0  0  0  0  0  0  0  0
   -7.1541    0.0389    4.0939 H   0  0  0  0  0  0  0  0  0  0  0  0
   -6.4667    1.2256    6.8091 H   0  0  0  0  0  0  0  0  0  0  0  0
   -6.9203   -1.7424    6.2859 H   0  0  0  0  0  0  0  0  0  0  0  0
   -6.0806   -1.0766    7.6955 H   0  0  0  0  0  0  0  0  0  0  0  0
   -8.0623   -0.2333    8.6693 H   0  0  0  0  0  0  0  0  0  0  0  0
   -8.7247   -1.6172    7.8000 H   0  0  0  0  0  0  0  0  0  0  0  0
   -4.9805   -0.2692    4.7569 H   0  0  0  0  0  0  0  0  0  0  0  0
   -1.7041    0.5779    7.5507 H   0  0  0  0  0  0  0  0  0  0  0  0
    0.6020    0.2763    6.5474 H   0  0  0  0  0  0  0  0  0  0  0  0
   -3.4015    0.4367    3.5806 H   0  0  0  0  0  0  0  0  0  0  0  0
    2.4446    1.9798    1.2245 H   0  0  0  0  0  0  0  0  0  0  0  0
    4.6837    1.8287    0.1175 H   0  0  0  0  0  0  0  0  0  0  0  0
    5.9537   -0.3185    0.1864 H   0  0  0  0  0  0  0  0  0  0  0  0
    4.9925   -2.2990    1.4029 H   0  0  0  0  0  0  0  0  0  0  0  0
    1.4989   -1.6474   -0.6219 Au  0  0  0  0  0  0  0  0  0  0  0  0
  1 30  1  0  0  0  0
  2 33  1  1  0  0  0
  2  1  1  0  0  0  0
  2  7  1  0  0  0  0
  3  2  1  0  0  0  0
  4  3  1  0  0  0  0
  4  5  1  0  0  0  0
  5 38  1  1  0  0  0
  5  6  1  0  0  0  0
  6  7  1  0  0  0  0
  6 40  1  0  0  0  0
  7 42  1  0  0  0  0
  7 41  1  0  0  0  0
  8  5  1  0  0  0  0
  8  9  1  0  0  0  0
  9 10  2  0  0  0  0
 11  9  1  0  0  0  0
 11 12  1  0  0  0  0
 12 44  1  0  0  0  0
 13 12  2  0  0  0  0
 13 45  1  0  0  0  0
 14 15  1  6  0  0  0
 14 13  1  0  0  0  0
 15 16  1  0  0  0  0
 16 11  2  0  0  0  0
 17 15  2  0  0  0  0
 18 17  2  0  0  0  0
 18 19  1  0  0  0  0
 19 20  1  0  0  0  0
 20 14  1  0  0  0  0
 20 21  2  0  0  0  0
 22 27  1  0  0  0  0
 22 19  1  0  0  0  0
 23 22  2  0  0  0  0
 24 25  2  0  0  0  0
 24 23  1  0  0  0  0
 25 26  1  0  0  0  0
 26 50  1  0  0  0  0
 26 27  2  0  0  0  0
 27 28  1  0  0  0  0
 29 18  1  0  0  0  0
 31  1  1  0  0  0  0
 32  1  1  0  0  0  0
 34  3  1  0  0  0  0
 35  3  1  0  0  0  0
 36  4  1  0  0  0  0
 37  4  1  0  0  0  0
 39  6  1  0  0  0  0
 43  8  1  0  0  0  0
 46 16  1  0  0  0  0
 47 23  1  0  0  0  0
 48 24  1  0  0  0  0
 49 25  1  0  0  0  0
 51 29  1  0  0  0  0
M  RAD  1  14   2
M  END
