039-277-869.xyz
 OpenBabel07262113423D
Fc1ccc(cc1)n1c(S)ncc1C(=O)N1CCN(CC1)C(=O)OC(C)(C)C
 51 53  0  0  1  0  0  0  0  0999 V2000
    5.3910   -5.8835    5.4621 C   0  0  0  0  0  0  0  0  0  0  0  0
    5.2345   -4.5886    4.6633 C   0  0  0  0  0  0  0  0  0  0  0  0
    4.5224   -4.8231    3.3293 C   0  0  0  0  0  0  0  0  0  0  0  0
    6.5875   -3.9153    4.4423 C   0  0  0  0  0  0  0  0  0  0  0  0
    4.5107   -3.6020    5.4651 O   0  0  0  0  0  0  0  0  0  0  0  0
    3.2435   -3.8154    5.8699 C   0  0  0  0  0  0  0  0  0  0  0  0
    2.5626   -4.7805    5.5744 O   0  0  0  0  0  0  0  0  0  0  0  0
    2.8091   -2.7905    6.6696 N   0  0  0  0  0  0  0  0  0  0  0  0
    1.4177   -2.7609    7.0783 C   0  0  0  0  0  0  0  0  0  0  0  0
    0.6753   -1.6453    6.3142 C   0  0  0  0  0  0  0  0  0  0  0  0
    1.5732   -0.5056    6.1152 N   0  0  0  0  0  0  0  0  0  0  0  0
    2.6280   -0.3986    7.1146 C   0  0  0  0  0  0  0  0  0  0  0  0
    3.5907   -1.5870    6.9586 C   0  0  0  0  0  0  0  0  0  0  0  0
    1.8309    0.0833    4.8953 C   0  0  0  0  0  0  0  0  0  0  0  0
    2.8519    0.7329    4.6955 O   0  0  0  0  0  0  0  0  0  0  0  0
    0.8165   -0.0734    3.8319 C   0  0  1  0  0  0  0  0  0  0  0  0
   -0.5667   -0.0980    3.8319 C   0  0  0  0  0  0  0  0  0  0  0  0
   -1.0578   -0.0458    2.5591 N   0  0  0  0  0  0  0  0  0  0  0  0
    0.0000   -0.0000    1.7623 C   0  0  0  0  0  0  0  0  0  0  0  0
    0.0000    0.0000    0.0000 S   0  0  0  0  0  0  0  0  0  0  0  0
    1.1715    0.0000    2.4793 N   0  0  0  0  0  0  0  0  0  0  0  0
    2.4876   -0.0341    1.9326 C   0  0  0  0  0  0  0  0  0  0  0  0
    2.9059    0.9816    1.0687 C   0  0  0  0  0  0  0  0  0  0  0  0
    4.1842    0.9413    0.5107 C   0  0  0  0  0  0  0  0  0  0  0  0
    5.0317   -0.1103    0.8458 C   0  0  0  0  0  0  0  0  0  0  0  0
    6.2637   -0.1521    0.3209 F   0  0  0  0  0  0  0  0  0  0  0  0
    4.6330   -1.1244    1.7153 C   0  0  0  0  0  0  0  0  0  0  0  0
    3.3502   -1.0869    2.2555 C   0  0  0  0  0  0  0  0  0  0  0  0
    4.4152   -6.3524    5.6398 H   0  0  0  0  0  0  0  0  0  0  0  0
    5.8709   -5.6769    6.4311 H   0  0  0  0  0  0  0  0  0  0  0  0
    6.0282   -6.5881    4.9062 H   0  0  0  0  0  0  0  0  0  0  0  0
    5.1371   -5.4796    2.6948 H   0  0  0  0  0  0  0  0  0  0  0  0
    4.3832   -3.8718    2.7952 H   0  0  0  0  0  0  0  0  0  0  0  0
    3.5419   -5.2886    3.4827 H   0  0  0  0  0  0  0  0  0  0  0  0
    6.4587   -2.9570    3.9169 H   0  0  0  0  0  0  0  0  0  0  0  0
    7.0811   -3.7148    5.4047 H   0  0  0  0  0  0  0  0  0  0  0  0
    7.2416   -4.5622    3.8392 H   0  0  0  0  0  0  0  0  0  0  0  0
    0.9718   -3.7370    6.8572 H   0  0  0  0  0  0  0  0  0  0  0  0
    1.3572   -2.6007    8.1678 H   0  0  0  0  0  0  0  0  0  0  0  0
    0.3625   -2.0220    5.3327 H   0  0  0  0  0  0  0  0  0  0  0  0
   -0.2351   -1.3512    6.8681 H   0  0  0  0  0  0  0  0  0  0  0  0
    2.1678   -0.3764    8.1146 H   0  0  0  0  0  0  0  0  0  0  0  0
    3.1692    0.5408    6.9598 H   0  0  0  0  0  0  0  0  0  0  0  0
    4.2017   -1.7128    7.8720 H   0  0  0  0  0  0  0  0  0  0  0  0
    4.2712   -1.3950    6.1210 H   0  0  0  0  0  0  0  0  0  0  0  0
   -1.2289   -0.1152    4.6958 H   0  0  0  0  0  0  0  0  0  0  0  0
   -2.2655   -0.3726   -0.2787 Au  0  0  0  0  0  0  0  0  0  0  0  0
    2.2327    1.8090    0.8418 H   0  0  0  0  0  0  0  0  0  0  0  0
    4.5349    1.7205   -0.1675 H   0  0  0  0  0  0  0  0  0  0  0  0
    5.3296   -1.9296    1.9517 H   0  0  0  0  0  0  0  0  0  0  0  0
    3.0169   -1.8729    2.9346 H   0  0  0  0  0  0  0  0  0  0  0  0
  1 29  1  0  0  0  0
  1 30  1  0  0  0  0
  2  1  1  0  0  0  0
  2  5  1  0  0  0  0
  3 34  1  0  0  0  0
  3  2  1  0  0  0  0
  4  2  1  0  0  0  0
  4 36  1  0  0  0  0
  5  6  1  0  0  0  0
  6  8  1  0  0  0  0
  7  6  2  0  0  0  0
  8 13  1  0  0  0  0
  8  9  1  0  0  0  0
  9 39  1  0  0  0  0
 10 41  1  0  0  0  0
 10  9  1  0  0  0  0
 11 10  1  0  0  0  0
 11 12  1  0  0  0  0
 12 42  1  0  0  0  0
 13 12  1  0  0  0  0
 13 44  1  0  0  0  0
 14 11  1  0  0  0  0
 15 14  2  0  0  0  0
 16 17  1  0  0  0  0
 16 14  1  1  0  0  0
 17 46  1  0  0  0  0
 18 17  2  0  0  0  0
 19 21  1  0  0  0  0
 19 18  2  0  0  0  0
 20 19  1  0  0  0  0
 21 16  1  0  0  0  0
 22 28  1  0  0  0  0
 22 21  1  0  0  0  0
 23 22  2  0  0  0  0
 24 25  2  0  0  0  0
 24 23  1  0  0  0  0
 25 27  1  0  0  0  0
 26 25  1  0  0  0  0
 27 50  1  0  0  0  0
 27 28  2  0  0  0  0
 28 51  1  0  0  0  0
 31  1  1  0  0  0  0
 32  3  1  0  0  0  0
 33  3  1  0  0  0  0
 35  4  1  0  0  0  0
 37  4  1  0  0  0  0
 38  9  1  0  0  0  0
 40 10  1  0  0  0  0
 43 12  1  0  0  0  0
 45 13  1  0  0  0  0
 47 20  1  0  0  0  0
 48 23  1  0  0  0  0
 49 24  1  0  0  0  0
M  RAD  1  16   2
M  END
