039-273-696.xyz
 OpenBabel07262113423D
Fc1ccc(cc1)n1c(S)ncc1C(=O)NNC(=O)c1ccoc1C
 38 40  0  0  1  0  0  0  0  0999 V2000
    4.7244    0.4855    8.8463 C   0  0  0  0  0  0  0  0  0  0  0  0
    5.9107    0.0462    8.0619 C   0  0  0  0  0  0  0  0  0  0  0  0
    7.0424   -0.2131    8.7602 O   0  0  0  0  0  0  0  0  0  0  0  0
    8.0148   -0.5899    7.8792 C   0  0  0  0  0  0  0  0  0  0  0  0
    7.5265   -0.5748    6.6105 C   0  0  0  0  0  0  0  0  0  0  0  0
    6.1503   -0.1667    6.7192 C   0  0  0  0  0  0  0  0  0  0  0  0
    5.2589   -0.0221    5.5545 C   0  0  0  0  0  0  0  0  0  0  0  0
    5.6600   -0.0454    4.3930 O   0  0  0  0  0  0  0  0  0  0  0  0
    3.9310    0.1662    5.8223 N   0  0  0  0  0  0  0  0  0  0  0  0
    3.0731    0.2228    4.7478 N   0  0  0  0  0  0  0  0  0  0  0  0
    1.7460    0.0108    4.9820 C   0  0  0  0  0  0  0  0  0  0  0  0
    1.3324   -0.1223    6.1333 O   0  0  0  0  0  0  0  0  0  0  0  0
    0.8476   -0.0174    3.8198 C   0  0  1  0  0  0  0  0  0  0  0  0
   -0.5338   -0.0259    3.8412 C   0  0  0  0  0  0  0  0  0  0  0  0
   -1.0443   -0.0122    2.5747 N   0  0  0  0  0  0  0  0  0  0  0  0
    0.0000   -0.0000    1.7610 C   0  0  0  0  0  0  0  0  0  0  0  0
    0.0000    0.0000    0.0000 S   0  0  0  0  0  0  0  0  0  0  0  0
    1.1844    0.0000    2.4555 N   0  0  0  0  0  0  0  0  0  0  0  0
    2.4855   -0.0485    1.8694 C   0  0  0  0  0  0  0  0  0  0  0  0
    3.1811   -1.2632    1.8226 C   0  0  0  0  0  0  0  0  0  0  0  0
    4.4715   -1.3063    1.2999 C   0  0  0  0  0  0  0  0  0  0  0  0
    5.0425   -0.1300    0.8180 C   0  0  0  0  0  0  0  0  0  0  0  0
    6.2794   -0.1671    0.3181 F   0  0  0  0  0  0  0  0  0  0  0  0
    4.3588    1.0842    0.8420 C   0  0  0  0  0  0  0  0  0  0  0  0
    3.0714    1.1231    1.3758 C   0  0  0  0  0  0  0  0  0  0  0  0
    5.0481    0.8938    9.8138 H   0  0  0  0  0  0  0  0  0  0  0  0
    4.1618    1.2626    8.3082 H   0  0  0  0  0  0  0  0  0  0  0  0
    4.0327   -0.3506    9.0527 H   0  0  0  0  0  0  0  0  0  0  0  0
    8.9828   -0.8260    8.3115 H   0  0  0  0  0  0  0  0  0  0  0  0
    8.0442   -0.8139    5.6857 H   0  0  0  0  0  0  0  0  0  0  0  0
    3.4510   -0.0401    6.6945 H   0  0  0  0  0  0  0  0  0  0  0  0
    3.5509    0.2163    3.8503 H   0  0  0  0  0  0  0  0  0  0  0  0
   -1.1639   -0.0311    4.7282 H   0  0  0  0  0  0  0  0  0  0  0  0
   -2.2951   -0.0950   -0.2676 Au  0  0  0  0  0  0  0  0  0  0  0  0
    2.7083   -2.1651    2.2142 H   0  0  0  0  0  0  0  0  0  0  0  0
    5.0457   -2.2329    1.2686 H   0  0  0  0  0  0  0  0  0  0  0  0
    4.8455    1.9810    0.4564 H   0  0  0  0  0  0  0  0  0  0  0  0
    2.5151    2.0603    1.4223 H   0  0  0  0  0  0  0  0  0  0  0  0
  1 28  1  0  0  0  0
  1 26  1  0  0  0  0
  2  3  1  0  0  0  0
  2  1  1  0  0  0  0
  4 29  1  0  0  0  0
  4  3  1  0  0  0  0
  5  6  1  0  0  0  0
  5  4  2  0  0  0  0
  6  2  2  0  0  0  0
  7  9  1  0  0  0  0
  7  6  1  0  0  0  0
  8  7  2  0  0  0  0
  9 31  1  0  0  0  0
 10 11  1  0  0  0  0
 10  9  1  0  0  0  0
 11 12  2  0  0  0  0
 13 14  1  0  0  0  0
 13 11  1  1  0  0  0
 14 33  1  0  0  0  0
 15 14  2  0  0  0  0
 16 18  1  0  0  0  0
 16 15  2  0  0  0  0
 17 16  1  0  0  0  0
 18 13  1  0  0  0  0
 19 18  1  0  0  0  0
 20 19  1  0  0  0  0
 20 35  1  0  0  0  0
 21 20  2  0  0  0  0
 22 24  2  0  0  0  0
 22 21  1  0  0  0  0
 23 22  1  0  0  0  0
 24 25  1  0  0  0  0
 25 38  1  0  0  0  0
 25 19  2  0  0  0  0
 27  1  1  0  0  0  0
 30  5  1  0  0  0  0
 32 10  1  0  0  0  0
 34 17  1  0  0  0  0
 36 21  1  0  0  0  0
 37 24  1  0  0  0  0
M  RAD  1  13   2
M  END
