039-271-385.xyz
 OpenBabel07262113423D
Cc1cnc(s1)NC(=O)c1cnc(n1c1ccccc1)S
 33 35  0  0  1  0  0  0  0  0999 V2000
    0.6860    5.4783    5.5117 C   0  0  0  0  0  0  0  0  0  0  0  0
    0.0973    4.1850    5.9736 C   0  0  2  0  0  0  0  0  0  0  0  0
   -0.2336    3.7807    7.2362 C   0  0  0  0  0  0  0  0  0  0  0  0
   -0.7375    2.5086    7.3693 N   0  0  0  0  0  0  0  0  0  0  0  0
   -0.7952    1.9038    6.2218 C   0  0  0  0  0  0  0  0  0  0  0  0
   -1.3599    0.6385    6.1133 N   0  0  0  0  0  0  0  0  0  0  0  0
   -1.6516   -0.1228    4.9884 C   0  0  0  0  0  0  0  0  0  0  0  0
   -2.5957   -0.8895    4.9811 O   0  0  0  0  0  0  0  0  0  0  0  0
   -0.7182    0.0114    3.8527 C   0  0  1  0  0  0  0  0  0  0  0  0
    0.6700   -0.0035    3.7923 C   0  0  0  0  0  0  0  0  0  0  0  0
    1.0928    0.0000    2.5028 N   0  0  0  0  0  0  0  0  0  0  0  0
   -0.0000    0.0000    1.7508 C   0  0  0  0  0  0  0  0  0  0  0  0
    0.0000    0.0000    0.0000 S   0  0  0  0  0  0  0  0  0  0  0  0
   -1.1423   -0.0269    2.5349 N   0  0  0  0  0  0  0  0  0  0  0  0
   -2.4851    0.1332    2.0855 C   0  0  0  0  0  0  0  0  0  0  0  0
   -3.1150   -0.8927    1.3806 C   0  0  0  0  0  0  0  0  0  0  0  0
   -4.4074   -0.6937    0.8935 C   0  0  0  0  0  0  0  0  0  0  0  0
   -5.0662    0.5200    1.1140 C   0  0  0  0  0  0  0  0  0  0  0  0
   -4.4320    1.5404    1.8286 C   0  0  0  0  0  0  0  0  0  0  0  0
   -3.1350    1.3520    2.3143 C   0  0  0  0  0  0  0  0  0  0  0  0
   -0.2258    2.8658    4.8560 S   0  0  0  0  0  0  0  0  0  0  0  0
    0.8261    6.1478    6.3732 H   0  0  0  0  0  0  0  0  0  0  0  0
    1.6680    5.3344    5.0310 H   0  0  0  0  0  0  0  0  0  0  0  0
    0.0356    5.9933    4.7852 H   0  0  0  0  0  0  0  0  0  0  0  0
   -0.1148    4.4035    8.1252 H   0  0  0  0  0  0  0  0  0  0  0  0
   -1.9048    0.3819    6.9347 H   0  0  0  0  0  0  0  0  0  0  0  0
    1.3641   -0.0241    4.6314 H   0  0  0  0  0  0  0  0  0  0  0  0
   -1.3696    1.8205   -0.4505 Au  0  0  0  0  0  0  0  0  0  0  0  0
   -2.5845   -1.8301    1.2130 H   0  0  0  0  0  0  0  0  0  0  0  0
   -4.9049   -1.4936    0.3410 H   0  0  0  0  0  0  0  0  0  0  0  0
   -6.0788    0.6686    0.7327 H   0  0  0  0  0  0  0  0  0  0  0  0
   -4.9463    2.4866    2.0114 H   0  0  0  0  0  0  0  0  0  0  0  0
   -2.6203    2.1379    2.8709 H   0  0  0  0  0  0  0  0  0  0  0  0
  1 22  1  0  0  0  0
  2  1  1  1  0  0  0
  2  3  1  0  0  0  0
  3  4  2  0  0  0  0
  3 25  1  0  0  0  0
  5  4  2  0  0  0  0
  6  5  1  0  0  0  0
  6 26  1  0  0  0  0
  7  6  1  0  0  0  0
  8  7  2  0  0  0  0
  9  7  1  1  0  0  0
 10  9  1  0  0  0  0
 10 27  1  0  0  0  0
 11 10  2  0  0  0  0
 12 11  2  0  0  0  0
 12 14  1  0  0  0  0
 13 12  1  0  0  0  0
 14  9  1  0  0  0  0
 15 20  1  0  0  0  0
 15 14  1  0  0  0  0
 16 15  2  0  0  0  0
 17 18  2  0  0  0  0
 17 16  1  0  0  0  0
 18 19  1  0  0  0  0
 19 32  1  0  0  0  0
 19 20  2  0  0  0  0
 20 33  1  0  0  0  0
 21  2  1  0  0  0  0
 21  5  1  0  0  0  0
 23  1  1  0  0  0  0
 24  1  1  0  0  0  0
 28 13  1  0  0  0  0
 29 16  1  0  0  0  0
 30 17  1  0  0  0  0
 31 18  1  0  0  0  0
M  RAD  2   2   2   9   2
M  END
