039-061-326.xyz
 OpenBabel07262113423D
CCOC(=O)c1sc2c(c1)cc(cc2)n1c(S)nc2c(c1=O)cccc2
 40 43  0  0  1  0  0  0  0  0999 V2000
   -6.3422   -6.5732   -2.3760 C   0  0  0  0  0  0  0  0  0  0  0  0
   -7.0877   -5.2586   -2.3122 C   0  0  0  0  0  0  0  0  0  0  0  0
   -6.2892   -4.3359   -1.5507 O   0  0  0  0  0  0  0  0  0  0  0  0
   -6.7938   -3.1036   -1.3847 C   0  0  0  0  0  0  0  0  0  0  0  0
   -7.8569   -2.7364   -1.8304 O   0  0  0  0  0  0  0  0  0  0  0  0
   -5.8916   -2.2466   -0.5906 C   0  0  0  0  0  0  0  0  0  0  0  0
   -6.3987   -0.5987   -0.2719 S   0  0  0  0  0  0  0  0  0  0  0  0
   -4.9295   -0.3013    0.6195 C   0  0  0  0  0  0  0  0  0  0  0  0
   -4.0916   -1.4514    0.6604 C   0  0  0  0  0  0  0  0  0  0  0  0
   -4.6733   -2.5545   -0.0458 C   0  0  0  0  0  0  0  0  0  0  0  0
   -2.8549   -1.3787    1.3325 C   0  0  0  0  0  0  0  0  0  0  0  0
   -2.4735   -0.1862    1.9226 C   0  0  0  0  0  0  0  0  0  0  0  0
   -3.3239    0.9435    1.9045 C   0  0  0  0  0  0  0  0  0  0  0  0
   -4.5518    0.8953    1.2512 C   0  0  0  0  0  0  0  0  0  0  0  0
   -1.1800   -0.0750    2.5302 N   0  0  0  0  0  0  0  0  0  0  0  0
    0.0000   -0.0000    1.7831 C   0  0  0  0  0  0  0  0  0  0  0  0
    0.0000    0.0000    0.0000 S   0  0  0  0  0  0  0  0  0  0  0  0
    1.1745   -0.0000    2.3146 N   0  0  0  0  0  0  0  0  0  0  0  0
    1.3057   -0.0940    3.6824 C   0  0  0  0  0  0  0  0  0  0  0  0
    0.1794   -0.1006    4.5374 C   0  0  1  0  0  0  0  0  0  0  0  0
   -1.1641   -0.0631    3.9548 C   0  0  0  0  0  0  0  0  0  0  0  0
   -2.2067   -0.0514    4.5797 O   0  0  0  0  0  0  0  0  0  0  0  0
    0.3406   -0.1586    5.9321 C   0  0  0  0  0  0  0  0  0  0  0  0
    1.6156   -0.2183    6.4782 C   0  0  0  0  0  0  0  0  0  0  0  0
    2.7420   -0.2174    5.6319 C   0  0  0  0  0  0  0  0  0  0  0  0
    2.5949   -0.1541    4.2536 C   0  0  0  0  0  0  0  0  0  0  0  0
   -6.1758   -6.9801   -1.3669 H   0  0  0  0  0  0  0  0  0  0  0  0
   -5.3637   -6.4470   -2.8641 H   0  0  0  0  0  0  0  0  0  0  0  0
   -6.9248   -7.3073   -2.9533 H   0  0  0  0  0  0  0  0  0  0  0  0
   -8.0714   -5.3608   -1.8264 H   0  0  0  0  0  0  0  0  0  0  0  0
   -7.2656   -4.8318   -3.3124 H   0  0  0  0  0  0  0  0  0  0  0  0
   -4.2124   -3.5359   -0.1508 H   0  0  0  0  0  0  0  0  0  0  0  0
   -2.1830   -2.2374    1.3546 H   0  0  0  0  0  0  0  0  0  0  0  0
   -3.0062    1.8508    2.4193 H   0  0  0  0  0  0  0  0  0  0  0  0
   -5.2089    1.7668    1.2429 H   0  0  0  0  0  0  0  0  0  0  0  0
   -1.7841    1.3482   -0.6138 Au  0  0  0  0  0  0  0  0  0  0  0  0
   -0.5549   -0.1587    6.5560 H   0  0  0  0  0  0  0  0  0  0  0  0
    1.7475   -0.2654    7.5612 H   0  0  0  0  0  0  0  0  0  0  0  0
    3.7436   -0.2642    6.0665 H   0  0  0  0  0  0  0  0  0  0  0  0
    3.4539   -0.1450    3.5809 H   0  0  0  0  0  0  0  0  0  0  0  0
  1  2  1  0  0  0  0
  1 27  1  0  0  0  0
  2 30  1  0  0  0  0
  2  3  1  0  0  0  0
  3  4  1  0  0  0  0
  4  6  1  0  0  0  0
  5  4  2  0  0  0  0
  6  7  1  0  0  0  0
  6 10  2  0  0  0  0
  7  8  1  0  0  0  0
  8  9  2  0  0  0  0
  8 14  1  0  0  0  0
  9 11  1  0  0  0  0
 10  9  1  0  0  0  0
 11 33  1  0  0  0  0
 11 12  2  0  0  0  0
 12 15  1  0  0  0  0
 13 12  1  0  0  0  0
 13 34  1  0  0  0  0
 14 13  2  0  0  0  0
 15 21  1  0  0  0  0
 16 18  2  0  0  0  0
 16 15  1  0  0  0  0
 17 16  1  0  0  0  0
 18 19  2  0  0  0  0
 19 26  1  0  0  0  0
 20 19  1  6  0  0  0
 20 23  1  0  0  0  0
 21 20  1  0  0  0  0
 21 22  2  0  0  0  0
 23 24  2  0  0  0  0
 23 37  1  0  0  0  0
 24 38  1  0  0  0  0
 25 39  1  0  0  0  0
 25 24  1  0  0  0  0
 26 25  2  0  0  0  0
 28  1  1  0  0  0  0
 29  1  1  0  0  0  0
 31  2  1  0  0  0  0
 32 10  1  0  0  0  0
 35 14  1  0  0  0  0
 36 17  1  0  0  0  0
 40 26  1  0  0  0  0
M  RAD  1  20   2
M  END
