039-257-992.xyz
 OpenBabel07262113423D
O=C1NCC(=O)N1Cc1cccc(c1)n1c(S)nc2c(c1=O)cccc2
 40 43  0  0  1  0  0  0  0  0999 V2000
   -7.3591   -2.8258    0.7184 O   0  0  0  0  0  0  0  0  0  0  0  0
   -6.5896   -3.5400    1.3188 C   0  0  0  0  0  0  0  0  0  0  0  0
   -6.8423   -4.3976    2.3543 N   0  0  0  0  0  0  0  0  0  0  0  0
   -5.6539   -5.0528    2.8510 C   0  0  0  0  0  0  0  0  0  0  0  0
   -4.5597   -4.4873    1.9403 C   0  0  0  0  0  0  0  0  0  0  0  0
   -3.3748   -4.7204    1.9777 O   0  0  0  0  0  0  0  0  0  0  0  0
   -5.2037   -3.6440    1.0600 N   0  0  0  0  0  0  0  0  0  0  0  0
   -4.5236   -2.8069    0.0846 C   0  0  0  0  0  0  0  0  0  0  0  0
   -4.0919   -1.4885    0.6878 C   0  0  0  0  0  0  0  0  0  0  0  0
   -4.9441   -0.3778    0.6527 C   0  0  0  0  0  0  0  0  0  0  0  0
   -4.5681    0.8197    1.2722 C   0  0  0  0  0  0  0  0  0  0  0  0
   -3.3317    0.9189    1.9181 C   0  0  0  0  0  0  0  0  0  0  0  0
   -2.4730   -0.1874    1.9293 C   0  0  0  0  0  0  0  0  0  0  0  0
   -2.8565   -1.3903    1.3415 C   0  0  0  0  0  0  0  0  0  0  0  0
   -1.1770   -0.0754    2.5329 N   0  0  0  0  0  0  0  0  0  0  0  0
    0.0000    0.0000    1.7830 C   0  0  0  0  0  0  0  0  0  0  0  0
    0.0000    0.0000    0.0000 S   0  0  0  0  0  0  0  0  0  0  0  0
    1.1770    0.0000    2.3097 N   0  0  0  0  0  0  0  0  0  0  0  0
    1.3135   -0.1016    3.6759 C   0  0  0  0  0  0  0  0  0  0  0  0
    0.1903   -0.1220    4.5345 C   0  0  1  0  0  0  0  0  0  0  0  0
   -1.1558   -0.0864    3.9575 C   0  0  0  0  0  0  0  0  0  0  0  0
   -2.1951   -0.0918    4.5882 O   0  0  0  0  0  0  0  0  0  0  0  0
    0.3570   -0.1918    5.9281 C   0  0  0  0  0  0  0  0  0  0  0  0
    1.6339   -0.2479    6.4695 C   0  0  0  0  0  0  0  0  0  0  0  0
    2.7575   -0.2326    5.6194 C   0  0  0  0  0  0  0  0  0  0  0  0
    2.6052   -0.1588    4.2424 C   0  0  0  0  0  0  0  0  0  0  0  0
   -7.7683   -4.4738    2.7528 H   0  0  0  0  0  0  0  0  0  0  0  0
   -5.4175   -4.8028    3.8994 H   0  0  0  0  0  0  0  0  0  0  0  0
   -5.6828   -6.1520    2.7577 H   0  0  0  0  0  0  0  0  0  0  0  0
   -5.2227   -2.6444   -0.7459 H   0  0  0  0  0  0  0  0  0  0  0  0
   -3.6546   -3.3722   -0.2781 H   0  0  0  0  0  0  0  0  0  0  0  0
   -5.9172   -0.4665    0.1654 H   0  0  0  0  0  0  0  0  0  0  0  0
   -5.2459    1.6760    1.2636 H   0  0  0  0  0  0  0  0  0  0  0  0
   -3.0278    1.8396    2.4179 H   0  0  0  0  0  0  0  0  0  0  0  0
   -2.1856   -2.2495    1.3782 H   0  0  0  0  0  0  0  0  0  0  0  0
   -1.8048    1.3128   -0.6243 Au  0  0  0  0  0  0  0  0  0  0  0  0
   -0.5365   -0.2032    6.5548 H   0  0  0  0  0  0  0  0  0  0  0  0
    1.7699   -0.3037    7.5517 H   0  0  0  0  0  0  0  0  0  0  0  0
    3.7609   -0.2770    6.0501 H   0  0  0  0  0  0  0  0  0  0  0  0
    3.4616   -0.1399    3.5666 H   0  0  0  0  0  0  0  0  0  0  0  0
  1  2  2  0  0  0  0
  2  3  1  0  0  0  0
  3 27  1  0  0  0  0
  3  4  1  0  0  0  0
  4 28  1  0  0  0  0
  5  6  2  0  0  0  0
  5  4  1  0  0  0  0
  7  2  1  0  0  0  0
  7  5  1  0  0  0  0
  8  9  1  0  0  0  0
  8  7  1  0  0  0  0
  9 14  1  0  0  0  0
 10  9  2  0  0  0  0
 10 11  1  0  0  0  0
 11 12  2  0  0  0  0
 12 13  1  0  0  0  0
 12 34  1  0  0  0  0
 13 15  1  0  0  0  0
 14 35  1  0  0  0  0
 14 13  2  0  0  0  0
 15 21  1  0  0  0  0
 16 18  2  0  0  0  0
 16 15  1  0  0  0  0
 17 16  1  0  0  0  0
 18 19  2  0  0  0  0
 19 26  1  0  0  0  0
 20 19  1  6  0  0  0
 20 23  1  0  0  0  0
 21 20  1  0  0  0  0
 21 22  2  0  0  0  0
 23 24  2  0  0  0  0
 23 37  1  0  0  0  0
 24 38  1  0  0  0  0
 25 39  1  0  0  0  0
 25 24  1  0  0  0  0
 26 25  2  0  0  0  0
 29  4  1  0  0  0  0
 30  8  1  0  0  0  0
 31  8  1  0  0  0  0
 32 10  1  0  0  0  0
 33 11  1  0  0  0  0
 36 17  1  0  0  0  0
 40 26  1  0  0  0  0
M  RAD  1  20   2
M  END
