039-061-564.xyz
 OpenBabel07262113423D
CSc1ccc(cn1)NC(=O)c1cccnc1S
 29 30  0  0  1  0  0  0  0  0999 V2000
   -8.9592    0.4924   -1.3916 C   0  0  0  0  0  0  0  0  0  0  0  0
   -7.7319    1.3418   -2.4246 S   0  0  0  0  0  0  0  0  0  0  0  0
   -6.2693    1.1255   -1.4435 C   0  0  0  0  0  0  0  0  0  0  0  0
   -5.0568    1.6612   -1.9237 C   0  0  0  0  0  0  0  0  0  0  0  0
   -3.9175    1.4919   -1.1563 C   0  0  0  0  0  0  0  0  0  0  0  0
   -3.9938    0.8002    0.0687 C   0  0  2  0  0  0  0  0  0  0  0  0
   -2.8136    0.6514    0.8118 N   0  0  0  0  0  0  0  0  0  0  0  0
   -2.6274   -0.0340    1.9820 C   0  0  0  0  0  0  0  0  0  0  0  0
   -3.5328   -0.5574    2.6121 O   0  0  0  0  0  0  0  0  0  0  0  0
   -1.2151   -0.0570    2.5195 C   0  0  1  0  0  0  0  0  0  0  0  0
   -1.1143   -0.1838    3.9116 C   0  0  0  0  0  0  0  0  0  0  0  0
    0.1289   -0.1939    4.5353 C   0  0  0  0  0  0  0  0  0  0  0  0
    1.2581   -0.0817    3.7230 C   0  0  0  0  0  0  0  0  0  0  0  0
    1.1918    0.0000    2.3956 N   0  0  0  0  0  0  0  0  0  0  0  0
   -0.0000    0.0000    1.7857 C   0  0  0  0  0  0  0  0  0  0  0  0
    0.0000    0.0000    0.0000 S   0  0  0  0  0  0  0  0  0  0  0  0
   -5.2502    0.3047    0.4570 C   0  0  0  0  0  0  0  0  0  0  0  0
   -6.3456    0.4719   -0.2903 N   0  0  0  0  0  0  0  0  0  0  0  0
   -9.0323    0.9706   -0.4062 H   0  0  0  0  0  0  0  0  0  0  0  0
   -8.6876   -0.5626   -1.2574 H   0  0  0  0  0  0  0  0  0  0  0  0
   -9.9145    0.5755   -1.9283 H   0  0  0  0  0  0  0  0  0  0  0  0
   -5.0192    2.1931   -2.8764 H   0  0  0  0  0  0  0  0  0  0  0  0
   -2.9576    1.8890   -1.4987 H   0  0  0  0  0  0  0  0  0  0  0  0
   -1.9868    1.0721    0.3931 H   0  0  0  0  0  0  0  0  0  0  0  0
   -2.0434   -0.2723    4.4775 H   0  0  0  0  0  0  0  0  0  0  0  0
    0.2239   -0.2803    5.6188 H   0  0  0  0  0  0  0  0  0  0  0  0
    2.2635   -0.0630    4.1575 H   0  0  0  0  0  0  0  0  0  0  0  0
    2.2645    0.3358   -0.3566 Au  0  0  0  0  0  0  0  0  0  0  0  0
   -5.3550   -0.2367    1.3964 H   0  0  0  0  0  0  0  0  0  0  0  0
  1 20  1  0  0  0  0
  1 19  1  0  0  0  0
  2  3  1  0  0  0  0
  2  1  1  0  0  0  0
  3 18  2  0  0  0  0
  4  3  1  0  0  0  0
  4  5  2  0  0  0  0
  5  6  1  0  0  0  0
  6 17  1  0  0  0  0
  6  7  1  6  0  0  0
  7  8  1  0  0  0  0
  8  9  2  0  0  0  0
 10  8  1  6  0  0  0
 10 11  1  0  0  0  0
 11 25  1  0  0  0  0
 11 12  2  0  0  0  0
 12 26  1  0  0  0  0
 13 27  1  0  0  0  0
 13 12  1  0  0  0  0
 14 13  2  0  0  0  0
 15 14  2  0  0  0  0
 15 10  1  0  0  0  0
 16 15  1  0  0  0  0
 17 29  1  0  0  0  0
 18 17  2  0  0  0  0
 21  1  1  0  0  0  0
 22  4  1  0  0  0  0
 23  5  1  0  0  0  0
 24  7  1  0  0  0  0
 28 16  1  0  0  0  0
M  RAD  2   6   2  10   2
M  END
