039-253-029.xyz
 OpenBabel07262113423D
COC(=O)C1=C(C)Nc2c(C1c1ccc(cc1)O)c(=O)nc([nH]2)S
 39 41  0  0  1  0  0  0  0  0999 V2000
    3.2698   -1.0951    9.7263 C   0  0  0  0  0  0  0  0  0  0  0  0
    3.1726   -0.7921    8.3377 O   0  0  0  0  0  0  0  0  0  0  0  0
    1.9206   -0.5343    7.8813 C   0  0  0  0  0  0  0  0  0  0  0  0
    0.9554   -0.5693    8.6129 O   0  0  0  0  0  0  0  0  0  0  0  0
    1.8391   -0.2174    6.4435 C   0  0  0  0  0  0  0  0  0  0  0  0
    2.8947   -0.2411    5.5806 C   0  0  0  0  0  0  0  0  0  0  0  0
    4.3382   -0.5220    5.9077 C   0  0  0  0  0  0  0  0  0  0  0  0
    2.6715    0.0036    4.2264 N   0  0  0  0  0  0  0  0  0  0  0  0
    1.3951    0.0353    3.7028 C   0  0  0  0  0  0  0  0  0  0  0  0
    1.2627    0.0000    2.3274 N   0  0  0  0  0  0  0  0  0  0  0  0
    0.0000   -0.0000    1.7749 C   0  0  0  0  0  0  0  0  0  0  0  0
    0.0000    0.0000    0.0000 S   0  0  0  0  0  0  0  0  0  0  0  0
   -1.0813   -0.0001    2.4774 N   0  0  0  0  0  0  0  0  0  0  0  0
   -1.0372    0.0058    3.8898 C   0  0  0  0  0  0  0  0  0  0  0  0
   -2.0643   -0.0296    4.5465 O   0  0  0  0  0  0  0  0  0  0  0  0
    0.2948    0.0626    4.4998 C   0  0  0  0  0  0  0  0  0  0  0  0
    0.4461    0.2041    5.9944 C   0  0  2  0  0  0  0  0  0  0  0  0
    0.1176    1.6316    6.4291 C   0  0  0  0  0  0  0  0  0  0  0  0
   -1.1553    1.9501    6.9157 C   0  0  0  0  0  0  0  0  0  0  0  0
   -1.4782    3.2582    7.2768 C   0  0  0  0  0  0  0  0  0  0  0  0
   -0.5267    4.2795    7.1545 C   0  0  0  0  0  0  0  0  0  0  0  0
   -0.7891    5.5703    7.4953 O   0  0  0  0  0  0  0  0  0  0  0  0
    0.7497    3.9754    6.6636 C   0  0  0  0  0  0  0  0  0  0  0  0
    1.0579    2.6641    6.3058 C   0  0  0  0  0  0  0  0  0  0  0  0
    2.6816   -1.9912    9.9756 H   0  0  0  0  0  0  0  0  0  0  0  0
    4.3344   -1.2693    9.9278 H   0  0  0  0  0  0  0  0  0  0  0  0
    2.8962   -0.2595   10.3371 H   0  0  0  0  0  0  0  0  0  0  0  0
    4.9676   -0.4294    5.0090 H   0  0  0  0  0  0  0  0  0  0  0  0
    4.7114    0.1698    6.6733 H   0  0  0  0  0  0  0  0  0  0  0  0
    4.4596   -1.5336    6.3181 H   0  0  0  0  0  0  0  0  0  0  0  0
    3.4653   -0.0451    3.6023 H   0  0  0  0  0  0  0  0  0  0  0  0
    2.0741   -0.0320    1.7218 H   0  0  0  0  0  0  0  0  0  0  0  0
   -2.3183   -0.0124   -0.1954 Au  0  0  0  0  0  0  0  0  0  0  0  0
   -0.2921   -0.4516    6.4754 H   0  0  0  0  0  0  0  0  0  0  0  0
   -1.9061    1.1626    6.9924 H   0  0  0  0  0  0  0  0  0  0  0  0
   -2.4784    3.4906    7.6563 H   0  0  0  0  0  0  0  0  0  0  0  0
   -1.6988    5.6325    7.8143 H   0  0  0  0  0  0  0  0  0  0  0  0
    1.4832    4.7789    6.5727 H   0  0  0  0  0  0  0  0  0  0  0  0
    2.0583    2.4395    5.9278 H   0  0  0  0  0  0  0  0  0  0  0  0
  1 26  1  0  0  0  0
  1 25  1  0  0  0  0
  1 27  1  0  0  0  0
  2  1  1  0  0  0  0
  3  2  1  0  0  0  0
  3  4  2  0  0  0  0
  5  3  1  0  0  0  0
  6  7  1  0  0  0  0
  6  5  2  0  0  0  0
  7 30  1  0  0  0  0
  7 29  1  0  0  0  0
  8  6  1  0  0  0  0
  9  8  1  0  0  0  0
  9 16  2  0  0  0  0
 10  9  1  0  0  0  0
 11 10  1  0  0  0  0
 11 13  2  0  0  0  0
 12 11  1  0  0  0  0
 13 14  2  0  0  0  0
 14 16  1  0  0  0  0
 14 15  2  0  0  0  0
 16 17  1  0  0  0  0
 17 18  1  0  0  0  0
 17  5  1  0  0  0  0
 17 34  1  1  0  0  0
 18 19  1  0  0  0  0
 19 35  1  0  0  0  0
 19 20  2  0  0  0  0
 20 36  1  0  0  0  0
 21 20  1  0  0  0  0
 21 22  1  0  0  0  0
 22 37  1  0  0  0  0
 23 21  2  0  0  0  0
 24 18  2  0  0  0  0
 24 23  1  0  0  0  0
 28  7  1  0  0  0  0
 31  8  1  0  0  0  0
 32 10  1  0  0  0  0
 33 12  1  0  0  0  0
 38 23  1  0  0  0  0
 39 24  1  0  0  0  0
M  END
