039-273-843.xyz
 OpenBabel07262113423D
Fc1ccc(cc1)n1c(S)ncc1C(=O)NNC(=O)c1ccc(cc1)C(C)(C)C
 50 52  0  0  1  0  0  0  0  0999 V2000
    6.3259   -2.6903   12.7378 C   0  0  0  0  0  0  0  0  0  0  0  0
    5.7078   -1.2759   12.7339 C   0  0  0  0  0  0  0  0  0  0  0  0
    6.8479   -0.2502   12.6417 C   0  0  0  0  0  0  0  0  0  0  0  0
    4.9478   -1.0407   14.0567 C   0  0  0  0  0  0  0  0  0  0  0  0
    4.7251   -1.1596   11.5602 C   0  0  0  0  0  0  0  0  0  0  0  0
    4.8711   -0.2103   10.5375 C   0  0  0  0  0  0  0  0  0  0  0  0
    3.9600   -0.1323    9.4823 C   0  0  0  0  0  0  0  0  0  0  0  0
    2.8705   -1.0094    9.4154 C   0  0  0  0  0  0  0  0  0  0  0  0
    2.7041   -1.9528   10.4398 C   0  0  0  0  0  0  0  0  0  0  0  0
    3.6176   -2.0255   11.4855 C   0  0  0  0  0  0  0  0  0  0  0  0
    1.8616   -0.9911    8.3175 C   0  0  0  0  0  0  0  0  0  0  0  0
    0.7694   -1.5477    8.3865 O   0  0  0  0  0  0  0  0  0  0  0  0
    2.2123   -0.2998    7.1942 N   0  0  0  0  0  0  0  0  0  0  0  0
    1.3364   -0.3198    6.1319 N   0  0  0  0  0  0  0  0  0  0  0  0
    1.8215    0.0227    4.9023 C   0  0  0  0  0  0  0  0  0  0  0  0
    2.9916    0.3730    4.7625 O   0  0  0  0  0  0  0  0  0  0  0  0
    0.8309   -0.0360    3.8212 C   0  0  1  0  0  0  0  0  0  0  0  0
   -0.5532   -0.0464    3.8353 C   0  0  0  0  0  0  0  0  0  0  0  0
   -1.0530   -0.0232    2.5664 N   0  0  0  0  0  0  0  0  0  0  0  0
   -0.0000   -0.0000    1.7615 C   0  0  0  0  0  0  0  0  0  0  0  0
    0.0000    0.0000    0.0000 S   0  0  0  0  0  0  0  0  0  0  0  0
    1.1773   -0.0000    2.4673 N   0  0  0  0  0  0  0  0  0  0  0  0
    2.4839   -0.0238    1.8905 C   0  0  0  0  0  0  0  0  0  0  0  0
    2.9294    1.0747    1.1507 C   0  0  0  0  0  0  0  0  0  0  0  0
    4.1909    1.0475    0.5559 C   0  0  0  0  0  0  0  0  0  0  0  0
    4.9902   -0.0799    0.7256 C   0  0  0  0  0  0  0  0  0  0  0  0
    6.2045   -0.1091    0.1621 F   0  0  0  0  0  0  0  0  0  0  0  0
    4.5611   -1.1810    1.4654 C   0  0  0  0  0  0  0  0  0  0  0  0
    3.2957   -1.1507    2.0463 C   0  0  0  0  0  0  0  0  0  0  0  0
    6.8711   -2.8828   11.8007 H   0  0  0  0  0  0  0  0  0  0  0  0
    5.5593   -3.4715   12.8476 H   0  0  0  0  0  0  0  0  0  0  0  0
    7.0345   -2.7956   13.5751 H   0  0  0  0  0  0  0  0  0  0  0  0
    7.5270   -0.3724   13.4993 H   0  0  0  0  0  0  0  0  0  0  0  0
    6.4707    0.7838   12.6622 H   0  0  0  0  0  0  0  0  0  0  0  0
    7.4434   -0.3817   11.7252 H   0  0  0  0  0  0  0  0  0  0  0  0
    4.1438   -1.7770   14.2031 H   0  0  0  0  0  0  0  0  0  0  0  0
    4.4932   -0.0380   14.0749 H   0  0  0  0  0  0  0  0  0  0  0  0
    5.6367   -1.1211   14.9130 H   0  0  0  0  0  0  0  0  0  0  0  0
    5.7018    0.4940   10.5553 H   0  0  0  0  0  0  0  0  0  0  0  0
    4.0969    0.6447    8.7267 H   0  0  0  0  0  0  0  0  0  0  0  0
    1.8439   -2.6225   10.3924 H   0  0  0  0  0  0  0  0  0  0  0  0
    3.4624   -2.7750   12.2640 H   0  0  0  0  0  0  0  0  0  0  0  0
    3.1552   -0.0324    6.9230 H   0  0  0  0  0  0  0  0  0  0  0  0
    0.4895   -0.8506    6.3235 H   0  0  0  0  0  0  0  0  0  0  0  0
   -1.2094   -0.0341    4.7052 H   0  0  0  0  0  0  0  0  0  0  0  0
   -2.2851   -0.2220   -0.2780 Au  0  0  0  0  0  0  0  0  0  0  0  0
    2.2873    1.9501    1.0456 H   0  0  0  0  0  0  0  0  0  0  0  0
    4.5654    1.8894   -0.0280 H   0  0  0  0  0  0  0  0  0  0  0  0
    5.2192   -2.0444    1.5727 H   0  0  0  0  0  0  0  0  0  0  0  0
    2.9325   -2.0000    2.6263 H   0  0  0  0  0  0  0  0  0  0  0  0
  1 31  1  0  0  0  0
  1 32  1  0  0  0  0
  2  1  1  0  0  0  0
  2  4  1  0  0  0  0
  3 34  1  0  0  0  0
  3  2  1  0  0  0  0
  3 33  1  0  0  0  0
  4 37  1  0  0  0  0
  4 36  1  0  0  0  0
  4 38  1  0  0  0  0
  5  2  1  0  0  0  0
  6 39  1  0  0  0  0
  6  5  2  0  0  0  0
  7  6  1  0  0  0  0
  8  7  2  0  0  0  0
  8  9  1  0  0  0  0
  9 10  2  0  0  0  0
 10  5  1  0  0  0  0
 10 42  1  0  0  0  0
 11 12  2  0  0  0  0
 11  8  1  0  0  0  0
 13 11  1  0  0  0  0
 14 44  1  0  0  0  0
 14 13  1  0  0  0  0
 15 14  1  0  0  0  0
 16 15  2  0  0  0  0
 17 18  1  0  0  0  0
 17 15  1  1  0  0  0
 18 45  1  0  0  0  0
 19 18  2  0  0  0  0
 20 22  1  0  0  0  0
 20 19  2  0  0  0  0
 21 20  1  0  0  0  0
 22 17  1  0  0  0  0
 23 29  1  0  0  0  0
 23 22  1  0  0  0  0
 24 23  2  0  0  0  0
 25 26  2  0  0  0  0
 25 24  1  0  0  0  0
 26 28  1  0  0  0  0
 27 26  1  0  0  0  0
 28 49  1  0  0  0  0
 28 29  2  0  0  0  0
 29 50  1  0  0  0  0
 30  1  1  0  0  0  0
 35  3  1  0  0  0  0
 40  7  1  0  0  0  0
 41  9  1  0  0  0  0
 43 13  1  0  0  0  0
 46 21  1  0  0  0  0
 47 24  1  0  0  0  0
 48 25  1  0  0  0  0
M  RAD  1  17   2
M  END
