039-269-613.xyz
 OpenBabel07262113423D
Sc1nc(c(s1)CC(=O)N1CCC(CC1)c1nc2c(o1)cccc2)C
 44 47  0  0  1  0  0  0  0  0999 V2000
   -1.7732   -0.0107    4.9110 C   0  0  0  0  0  0  0  0  0  0  0  0
   -0.6826    0.0052    3.8826 C   0  0  0  0  0  0  0  0  0  0  0  0
   -1.0344    0.0045    2.5467 N   0  0  0  0  0  0  0  0  0  0  0  0
    0.0000    0.0000    1.7582 C   0  0  0  0  0  0  0  0  0  0  0  0
    0.0000    0.0000    0.0000 S   0  0  0  0  0  0  0  0  0  0  0  0
    1.5412    0.0000    2.6087 S   0  0  0  0  0  0  0  0  0  0  0  0
    0.6696   -0.0072    4.1298 C   0  0  2  0  0  0  0  0  0  0  0  0
    1.4034   -0.0569    5.4411 C   0  0  0  0  0  0  0  0  0  0  0  0
    0.8053   -1.0369    6.4602 C   0  0  0  0  0  0  0  0  0  0  0  0
    0.4011   -0.6289    7.5402 O   0  0  0  0  0  0  0  0  0  0  0  0
    0.7212   -2.3530    6.1006 N   0  0  0  0  0  0  0  0  0  0  0  0
    1.2083   -2.9020    4.8344 C   0  0  0  0  0  0  0  0  0  0  0  0
    1.4844   -4.3944    4.9810 C   0  0  0  0  0  0  0  0  0  0  0  0
    0.1870   -5.1727    5.3255 C   0  0  2  0  0  0  0  0  0  0  0  0
   -0.7498   -4.3138    6.2041 C   0  0  0  0  0  0  0  0  0  0  0  0
    0.0246   -3.2742    7.0054 C   0  0  0  0  0  0  0  0  0  0  0  0
    0.5258   -6.4728    5.9777 C   0  0  0  0  0  0  0  0  0  0  0  0
    0.2028   -6.9018    7.1539 N   0  0  0  0  0  0  0  0  0  0  0  0
    0.8124   -8.1519    7.2653 C   0  0  0  0  0  0  0  0  0  0  0  0
    0.8255   -9.0939    8.2989 C   0  0  0  0  0  0  0  0  0  0  0  0
    1.5486  -10.2699    8.0860 C   0  0  0  0  0  0  0  0  0  0  0  0
    2.2387  -10.5049    6.8807 C   0  0  0  0  0  0  0  0  0  0  0  0
    2.2337   -9.5714    5.8378 C   0  0  0  0  0  0  0  0  0  0  0  0
    1.5102   -8.4094    6.0718 C   0  0  0  0  0  0  0  0  0  0  0  0
    1.3221   -7.3284    5.2524 O   0  0  0  0  0  0  0  0  0  0  0  0
   -1.3937    0.1814    5.9218 H   0  0  0  0  0  0  0  0  0  0  0  0
   -2.5311    0.7479    4.6629 H   0  0  0  0  0  0  0  0  0  0  0  0
   -2.2839   -0.9888    4.9161 H   0  0  0  0  0  0  0  0  0  0  0  0
   -2.2881    0.1024   -0.3179 Au  0  0  0  0  0  0  0  0  0  0  0  0
    1.3912    0.9204    5.9454 H   0  0  0  0  0  0  0  0  0  0  0  0
    2.4620   -0.3098    5.2680 H   0  0  0  0  0  0  0  0  0  0  0  0
    0.4794   -2.7325    4.0218 H   0  0  0  0  0  0  0  0  0  0  0  0
    2.1315   -2.3885    4.5351 H   0  0  0  0  0  0  0  0  0  0  0  0
    2.2291   -4.5409    5.7795 H   0  0  0  0  0  0  0  0  0  0  0  0
    1.9301   -4.7847    4.0551 H   0  0  0  0  0  0  0  0  0  0  0  0
   -0.3256   -5.4134    4.3782 H   0  0  0  0  0  0  0  0  0  0  0  0
   -1.4754   -3.7932    5.5601 H   0  0  0  0  0  0  0  0  0  0  0  0
   -1.3142   -4.9591    6.8900 H   0  0  0  0  0  0  0  0  0  0  0  0
   -0.6389   -2.6711    7.6370 H   0  0  0  0  0  0  0  0  0  0  0  0
    0.7405   -3.7730    7.6826 H   0  0  0  0  0  0  0  0  0  0  0  0
    0.2887   -8.9069    9.2302 H   0  0  0  0  0  0  0  0  0  0  0  0
    1.5819  -11.0285    8.8712 H   0  0  0  0  0  0  0  0  0  0  0  0
    2.7917  -11.4385    6.7560 H   0  0  0  0  0  0  0  0  0  0  0  0
    2.7641   -9.7430    4.9003 H   0  0  0  0  0  0  0  0  0  0  0  0
  1 28  1  0  0  0  0
  1 26  1  0  0  0  0
  2  7  1  0  0  0  0
  2  1  1  0  0  0  0
  3  2  2  0  0  0  0
  4  3  2  0  0  0  0
  4  6  1  0  0  0  0
  5  4  1  0  0  0  0
  6  7  1  0  0  0  0
  7  8  1  6  0  0  0
  8 30  1  0  0  0  0
  8  9  1  0  0  0  0
  9 10  2  0  0  0  0
 11  9  1  0  0  0  0
 11 16  1  0  0  0  0
 12 13  1  0  0  0  0
 12 11  1  0  0  0  0
 13 14  1  0  0  0  0
 13 34  1  0  0  0  0
 14 36  1  6  0  0  0
 14 17  1  0  0  0  0
 14 15  1  0  0  0  0
 15 38  1  0  0  0  0
 15 16  1  0  0  0  0
 16 39  1  0  0  0  0
 16 40  1  0  0  0  0
 17 18  2  0  0  0  0
 18 19  2  0  0  0  0
 19 20  1  0  0  0  0
 20 41  1  0  0  0  0
 21 20  2  0  0  0  0
 21 42  1  0  0  0  0
 22 21  1  0  0  0  0
 23 24  2  0  0  0  0
 23 22  1  0  0  0  0
 24 19  1  0  0  0  0
 25 17  1  0  0  0  0
 25 24  1  0  0  0  0
 27  1  1  0  0  0  0
 29  5  1  0  0  0  0
 31  8  1  0  0  0  0
 32 12  1  0  0  0  0
 33 12  1  0  0  0  0
 35 13  1  0  0  0  0
 37 15  1  0  0  0  0
 43 22  1  0  0  0  0
 44 23  1  0  0  0  0
M  RAD  2   7   2  22   2
M  END
