039-061-565.xyz
 OpenBabel07262113423D
O=C(c1cccnc1S)Nc1n[nH]c(c1)c1c(F)cccc1F
 33 35  0  0  1  0  0  0  0  0999 V2000
   -3.4679    0.3679    2.9368 O   0  0  0  0  0  0  0  0  0  0  0  0
   -2.6027   -0.1050    2.2143 C   0  0  0  0  0  0  0  0  0  0  0  0
   -1.1509   -0.0484    2.6290 C   0  0  2  0  0  0  0  0  0  0  0  0
   -0.9359   -0.0041    4.0135 C   0  0  0  0  0  0  0  0  0  0  0  0
    0.3577    0.0011    4.5260 C   0  0  0  0  0  0  0  0  0  0  0  0
    1.4179   -0.0273    3.6171 C   0  0  0  0  0  0  0  0  0  0  0  0
    1.2360    0.0000    2.2987 N   0  0  0  0  0  0  0  0  0  0  0  0
    0.0000    0.0000    1.8013 C   0  0  0  0  0  0  0  0  0  0  0  0
    0.0000    0.0000    0.0000 S   0  0  0  0  0  0  0  0  0  0  0  0
   -2.8744   -0.7598    1.0484 N   0  0  0  0  0  0  0  0  0  0  0  0
   -4.1261   -0.8518    0.4463 C   0  0  0  0  0  0  0  0  0  0  0  0
   -4.1972   -1.3647   -0.7835 N   0  0  0  0  0  0  0  0  0  0  0  0
   -5.4967   -1.3201   -1.0936 N   0  0  0  0  0  0  0  0  0  0  0  0
   -6.2778   -0.7897   -0.1023 C   0  0  0  0  0  0  0  0  0  0  0  0
   -5.3969   -0.4671    0.9352 C   0  0  0  0  0  0  0  0  0  0  0  0
   -7.7284   -0.6397   -0.2155 C   0  0  0  0  0  0  0  0  0  0  0  0
   -8.5090   -0.0980    0.8280 C   0  0  0  0  0  0  0  0  0  0  0  0
   -7.9020    0.2906    1.9546 F   0  0  0  0  0  0  0  0  0  0  0  0
   -9.8882    0.0567    0.7510 C   0  0  0  0  0  0  0  0  0  0  0  0
  -10.5579   -0.3368   -0.4081 C   0  0  0  0  0  0  0  0  0  0  0  0
   -9.8397   -0.8795   -1.4746 C   0  0  0  0  0  0  0  0  0  0  0  0
   -8.4636   -1.0166   -1.3569 C   0  0  0  0  0  0  0  0  0  0  0  0
   -7.7998   -1.5457   -2.4090 F   0  0  0  0  0  0  0  0  0  0  0  0
   -1.8129    0.0161    4.6629 H   0  0  0  0  0  0  0  0  0  0  0  0
    0.5425    0.0234    5.6016 H   0  0  0  0  0  0  0  0  0  0  0  0
    2.4565   -0.0532    3.9660 H   0  0  0  0  0  0  0  0  0  0  0  0
   -1.4216    1.7312   -0.5627 Au  0  0  0  0  0  0  0  0  0  0  0  0
   -2.0916   -1.0654    0.4707 H   0  0  0  0  0  0  0  0  0  0  0  0
   -5.8139   -1.6646   -1.9894 H   0  0  0  0  0  0  0  0  0  0  0  0
   -5.6131   -0.0234    1.8958 H   0  0  0  0  0  0  0  0  0  0  0  0
  -10.4121    0.4848    1.6065 H   0  0  0  0  0  0  0  0  0  0  0  0
  -11.6407   -0.2208   -0.4807 H   0  0  0  0  0  0  0  0  0  0  0  0
  -10.3222   -1.2003   -2.3985 H   0  0  0  0  0  0  0  0  0  0  0  0
  2  1  2  0  0  0  0
  3  2  1  6  0  0  0
  3  4  1  0  0  0  0
  4  5  2  0  0  0  0
  4 24  1  0  0  0  0
  5 25  1  0  0  0  0
  6 26  1  0  0  0  0
  6  5  1  0  0  0  0
  7  6  2  0  0  0  0
  8  7  2  0  0  0  0
  8  3  1  0  0  0  0
  9  8  1  0  0  0  0
 10  2  1  0  0  0  0
 11 15  1  0  0  0  0
 11 10  1  0  0  0  0
 12 11  2  0  0  0  0
 13 12  1  0  0  0  0
 13 14  1  0  0  0  0
 14 15  2  0  0  0  0
 15 30  1  0  0  0  0
 16 14  1  0  0  0  0
 16 17  2  0  0  0  0
 17 18  1  0  0  0  0
 19 17  1  0  0  0  0
 19 31  1  0  0  0  0
 20 19  2  0  0  0  0
 21 22  2  0  0  0  0
 21 20  1  0  0  0  0
 22 16  1  0  0  0  0
 23 22  1  0  0  0  0
 27  9  1  0  0  0  0
 28 10  1  0  0  0  0
 29 13  1  0  0  0  0
 32 20  1  0  0  0  0
 33 21  1  0  0  0  0
M  RAD  1   3   2
M  END
