039-276-214.xyz
 OpenBabel07262113423D
COc1ccc(cc1NC(=O)C)n1c(S)nc2c(c1=O)cccc2
 39 41  0  0  1  0  0  0  0  0999 V2000
    6.4594    0.9190   -1.3858 C   0  0  0  0  0  0  0  0  0  0  0  0
    5.7900   -0.2324   -0.9187 O   0  0  0  0  0  0  0  0  0  0  0  0
    4.6916   -0.0876   -0.1264 C   0  0  0  0  0  0  0  0  0  0  0  0
    4.1508    1.1369    0.2660 C   0  0  0  0  0  0  0  0  0  0  0  0
    3.0172    1.1686    1.0829 C   0  0  0  0  0  0  0  0  0  0  0  0
    2.4342   -0.0265    1.4929 C   0  0  0  0  0  0  0  0  0  0  0  0
    2.9682   -1.2634    1.1158 C   0  0  0  0  0  0  0  0  0  0  0  0
    4.0995   -1.3056    0.2997 C   0  0  0  0  0  0  0  0  0  0  0  0
    4.7143   -2.4816   -0.1442 N   0  0  0  0  0  0  0  0  0  0  0  0
    4.3430   -3.7822    0.1068 C   0  0  0  0  0  0  0  0  0  0  0  0
    3.3768   -4.0954    0.7772 O   0  0  0  0  0  0  0  0  0  0  0  0
    5.2571   -4.8244   -0.5158 C   0  0  0  0  0  0  0  0  0  0  0  0
    1.2678   -0.0000    2.3361 N   0  0  0  0  0  0  0  0  0  0  0  0
    0.0000   -0.0000    1.7780 C   0  0  0  0  0  0  0  0  0  0  0  0
    0.0000    0.0000    0.0000 S   0  0  0  0  0  0  0  0  0  0  0  0
   -1.0952    0.0056    2.4668 N   0  0  0  0  0  0  0  0  0  0  0  0
   -1.0103    0.0092    3.8439 C   0  0  0  0  0  0  0  0  0  0  0  0
    0.2338    0.0154    4.5186 C   0  0  2  0  0  0  0  0  0  0  0  0
    1.4773    0.0157    3.7407 C   0  0  0  0  0  0  0  0  0  0  0  0
    2.6033    0.0286    4.1958 O   0  0  0  0  0  0  0  0  0  0  0  0
    0.2860    0.0209    5.9228 C   0  0  0  0  0  0  0  0  0  0  0  0
   -0.8890    0.0197    6.6615 C   0  0  0  0  0  0  0  0  0  0  0  0
   -2.1307    0.0135    5.9969 C   0  0  0  0  0  0  0  0  0  0  0  0
   -2.1956    0.0085    4.6108 C   0  0  0  0  0  0  0  0  0  0  0  0
    7.3036    0.5669   -1.9926 H   0  0  0  0  0  0  0  0  0  0  0  0
    6.8439    1.5295   -0.5503 H   0  0  0  0  0  0  0  0  0  0  0  0
    5.7993    1.5438   -2.0124 H   0  0  0  0  0  0  0  0  0  0  0  0
    4.6051    2.0724   -0.0574 H   0  0  0  0  0  0  0  0  0  0  0  0
    2.5865    2.1196    1.3975 H   0  0  0  0  0  0  0  0  0  0  0  0
    2.5128   -2.1940    1.4426 H   0  0  0  0  0  0  0  0  0  0  0  0
    5.5330   -2.3217   -0.7195 H   0  0  0  0  0  0  0  0  0  0  0  0
    6.0121   -4.4075   -1.1978 H   0  0  0  0  0  0  0  0  0  0  0  0
    4.6370   -5.5525   -1.0584 H   0  0  0  0  0  0  0  0  0  0  0  0
    5.7676   -5.3709    0.2923 H   0  0  0  0  0  0  0  0  0  0  0  0
   -2.2914   -0.0260   -0.3235 Au  0  0  0  0  0  0  0  0  0  0  0  0
    1.2678    0.0248    6.3999 H   0  0  0  0  0  0  0  0  0  0  0  0
   -0.8534    0.0229    7.7530 H   0  0  0  0  0  0  0  0  0  0  0  0
   -3.0553    0.0121    6.5798 H   0  0  0  0  0  0  0  0  0  0  0  0
   -3.1503    0.0033    4.0823 H   0  0  0  0  0  0  0  0  0  0  0  0
  1  2  1  0  0  0  0
  1 26  1  0  0  0  0
  2  3  1  0  0  0  0
  3  4  2  0  0  0  0
  3  8  1  0  0  0  0
  4  5  1  0  0  0  0
  5 29  1  0  0  0  0
  5  6  2  0  0  0  0
  6 13  1  0  0  0  0
  7 30  1  0  0  0  0
  7  6  1  0  0  0  0
  8  7  2  0  0  0  0
  9 10  1  0  0  0  0
  9  8  1  0  0  0  0
 10 11  2  0  0  0  0
 12 10  1  0  0  0  0
 12 34  1  0  0  0  0
 13 19  1  0  0  0  0
 14 13  1  0  0  0  0
 14 16  2  0  0  0  0
 15 14  1  0  0  0  0
 16 17  2  0  0  0  0
 17 18  1  0  0  0  0
 17 24  1  0  0  0  0
 18 19  1  1  0  0  0
 18 21  1  0  0  0  0
 19 20  2  0  0  0  0
 21 36  1  0  0  0  0
 21 22  2  0  0  0  0
 22 37  1  0  0  0  0
 23 38  1  0  0  0  0
 23 22  1  0  0  0  0
 24 23  2  0  0  0  0
 25  1  1  0  0  0  0
 27  1  1  0  0  0  0
 28  4  1  0  0  0  0
 31  9  1  0  0  0  0
 32 12  1  0  0  0  0
 33 12  1  0  0  0  0
 35 15  1  0  0  0  0
 39 24  1  0  0  0  0
M  RAD  1  18   2
M  END
