044-291-049.xyz
 OpenBabel07262113423D
Sc1nncn1N=Cc1ccccn1
 21 22  0  0  0  0  0  0  0  0999 V2000
    0.0000    0.0000    0.0000 S   0  0  0  0  0  0  0  0  0  0  0  0
    0.0000   -0.0000    1.7514 C   0  0  0  0  0  0  0  0  0  0  0  0
    1.0765    0.0000    2.5136 N   0  0  0  0  0  0  0  0  0  0  0  0
    0.6927    0.0003    3.8320 N   0  0  0  0  0  0  0  0  0  0  0  0
   -0.6052    0.0006    3.8628 C   0  0  0  0  0  0  0  0  0  0  0  0
   -1.1239    0.0004    2.5779 N   0  0  0  0  0  0  0  0  0  0  0  0
   -2.4661    0.0006    2.3792 N   0  0  0  0  0  0  0  0  0  0  0  0
   -2.9635   -0.0008    1.2001 C   0  0  0  0  0  0  0  0  0  0  0  0
   -4.4209   -0.0005    0.9992 C   0  0  0  0  0  0  0  0  0  0  0  0
   -5.3244    0.0019    2.0760 C   0  0  0  0  0  0  0  0  0  0  0  0
   -6.6877    0.0020    1.7958 C   0  0  0  0  0  0  0  0  0  0  0  0
   -7.1016   -0.0003    0.4604 C   0  0  0  0  0  0  0  0  0  0  0  0
   -6.1232   -0.0025   -0.5396 C   0  0  0  0  0  0  0  0  0  0  0  0
   -4.8160   -0.0026   -0.2833 N   0  0  0  0  0  0  0  0  0  0  0  0
    2.3234    0.0005   -0.1889 Au  0  0  0  0  0  0  0  0  0  0  0  0
   -1.2546    0.0009    4.7359 H   0  0  0  0  0  0  0  0  0  0  0  0
   -2.3712   -0.0024    0.2743 H   0  0  0  0  0  0  0  0  0  0  0  0
   -4.9408    0.0036    3.0968 H   0  0  0  0  0  0  0  0  0  0  0  0
   -7.4204    0.0037    2.6064 H   0  0  0  0  0  0  0  0  0  0  0  0
   -8.1608   -0.0003    0.1951 H   0  0  0  0  0  0  0  0  0  0  0  0
   -6.4137   -0.0043   -1.5963 H   0  0  0  0  0  0  0  0  0  0  0  0
  1  2  1  0  0  0  0
  2  3  2  0  0  0  0
  2  6  1  0  0  0  0
  3  4  1  0  0  0  0
  4  5  2  0  0  0  0
  5 16  1  0  0  0  0
  6  5  1  0  0  0  0
  7  6  1  0  0  0  0
  8  7  2  0  0  0  0
  9  8  1  0  0  0  0
  9 10  1  0  0  0  0
 10 18  1  0  0  0  0
 11 10  2  0  0  0  0
 11 19  1  0  0  0  0
 12 11  1  0  0  0  0
 13 14  2  0  0  0  0
 13 12  1  0  0  0  0
 14  9  2  0  0  0  0
 15  1  1  0  0  0  0
 17  8  1  0  0  0  0
 20 12  1  0  0  0  0
 21 13  1  0  0  0  0
M  RAD  1  12   2
M  END
