044-590-144.xyz
 OpenBabel07262113423D
Cc1ncc(o1)c1ccc(cc1)NC(=O)c1cccnc1S
 35 37  0  0  1  0  0  0  0  0999 V2000
  -10.9195    0.8131   -2.8300 C   0  0  0  0  0  0  0  0  0  0  0  0
   -9.5124    1.2567   -2.9960 C   0  0  0  0  0  0  0  0  0  0  0  0
   -8.9819    1.9513   -3.9565 N   0  0  0  0  0  0  0  0  0  0  0  0
   -7.6479    2.0796   -3.6169 C   0  0  0  0  0  0  0  0  0  0  0  0
   -7.4136    1.4383   -2.4271 C   0  0  1  0  0  0  0  0  0  0  0  0
   -8.6176    0.9101   -2.0313 O   0  0  0  0  0  0  0  0  0  0  0  0
   -6.2500    1.2273   -1.5820 C   0  0  0  0  0  0  0  0  0  0  0  0
   -6.3419    0.5038   -0.3798 C   0  0  0  0  0  0  0  0  0  0  0  0
   -5.2326    0.2977    0.4367 C   0  0  0  0  0  0  0  0  0  0  0  0
   -3.9836    0.8209    0.0604 C   0  0  0  0  0  0  0  0  0  0  0  0
   -2.8114    0.6623    0.8136 N   0  0  0  0  0  0  0  0  0  0  0  0
   -2.6275   -0.0345    1.9784 C   0  0  0  0  0  0  0  0  0  0  0  0
   -3.5302   -0.5677    2.6042 O   0  0  0  0  0  0  0  0  0  0  0  0
   -1.2157   -0.0571    2.5183 C   0  0  1  0  0  0  0  0  0  0  0  0
   -1.1162   -0.1848    3.9103 C   0  0  0  0  0  0  0  0  0  0  0  0
    0.1265   -0.1949    4.5351 C   0  0  0  0  0  0  0  0  0  0  0  0
    1.2563   -0.0820    3.7238 C   0  0  0  0  0  0  0  0  0  0  0  0
    1.1913    0.0000    2.3964 N   0  0  0  0  0  0  0  0  0  0  0  0
    0.0000   -0.0000    1.7853 C   0  0  0  0  0  0  0  0  0  0  0  0
    0.0000    0.0000    0.0000 S   0  0  0  0  0  0  0  0  0  0  0  0
   -3.8810    1.5460   -1.1428 C   0  0  0  0  0  0  0  0  0  0  0  0
   -4.9928    1.7458   -1.9482 C   0  0  0  0  0  0  0  0  0  0  0  0
  -10.9848   -0.2859   -2.7806 H   0  0  0  0  0  0  0  0  0  0  0  0
  -11.5071    1.1707   -3.6842 H   0  0  0  0  0  0  0  0  0  0  0  0
  -11.3535    1.2129   -1.8992 H   0  0  0  0  0  0  0  0  0  0  0  0
   -6.9439    2.6214   -4.2446 H   0  0  0  0  0  0  0  0  0  0  0  0
   -7.3077    0.0949   -0.0799 H   0  0  0  0  0  0  0  0  0  0  0  0
   -5.3167   -0.2615    1.3644 H   0  0  0  0  0  0  0  0  0  0  0  0
   -1.9829    1.0905    0.4068 H   0  0  0  0  0  0  0  0  0  0  0  0
   -2.0457   -0.2740    4.4755 H   0  0  0  0  0  0  0  0  0  0  0  0
    0.2206   -0.2816    5.6187 H   0  0  0  0  0  0  0  0  0  0  0  0
    2.2613   -0.0630    4.1593 H   0  0  0  0  0  0  0  0  0  0  0  0
    2.2656    0.3263   -0.3576 Au  0  0  0  0  0  0  0  0  0  0  0  0
   -2.9116    1.9507   -1.4454 H   0  0  0  0  0  0  0  0  0  0  0  0
   -4.8839    2.3106   -2.8761 H   0  0  0  0  0  0  0  0  0  0  0  0
  1 23  1  0  0  0  0
  1 25  1  0  0  0  0
  2  1  1  0  0  0  0
  2  6  1  0  0  0  0
  3  4  2  0  0  0  0
  3  2  2  0  0  0  0
  4  5  1  0  0  0  0
  5  6  1  0  0  0  0
  5  7  1  6  0  0  0
  7  8  1  0  0  0  0
  8 27  1  0  0  0  0
  8  9  2  0  0  0  0
  9 28  1  0  0  0  0
 10  9  1  0  0  0  0
 10 11  1  0  0  0  0
 11 12  1  0  0  0  0
 12 13  2  0  0  0  0
 14 12  1  6  0  0  0
 14 15  1  0  0  0  0
 15 30  1  0  0  0  0
 15 16  2  0  0  0  0
 16 31  1  0  0  0  0
 17 32  1  0  0  0  0
 17 16  1  0  0  0  0
 18 17  2  0  0  0  0
 19 18  2  0  0  0  0
 19 14  1  0  0  0  0
 20 19  1  0  0  0  0
 21 10  2  0  0  0  0
 22  7  2  0  0  0  0
 22 21  1  0  0  0  0
 24  1  1  0  0  0  0
 26  4  1  0  0  0  0
 29 11  1  0  0  0  0
 33 20  1  0  0  0  0
 34 21  1  0  0  0  0
 35 22  1  0  0  0  0
M  RAD  2   5   2  14   2
M  END
