044-289-991.xyz
 OpenBabel07262113423D
Sc1nc(cn1N=Cc1ccc2c(c1)OCO2)c1ccccc1
 36 39  0  0  0  0  0  0  0  0999 V2000
    0.0000    0.0000    0.0000 S   0  0  0  0  0  0  0  0  0  0  0  0
   -0.0000   -0.0000    1.7581 C   0  0  0  0  0  0  0  0  0  0  0  0
   -1.1088    0.0443    2.4485 N   0  0  0  0  0  0  0  0  0  0  0  0
   -0.7633    0.0713    3.7912 C   0  0  0  0  0  0  0  0  0  0  0  0
    0.6068    0.0494    3.9232 C   0  0  0  0  0  0  0  0  0  0  0  0
    1.1088   -0.0000    2.6214 N   0  0  0  0  0  0  0  0  0  0  0  0
    2.3794   -0.0817    2.2013 N   0  0  0  0  0  0  0  0  0  0  0  0
    3.3778    0.1264    2.9808 C   0  0  0  0  0  0  0  0  0  0  0  0
    4.7492   -0.0057    2.4848 C   0  0  0  0  0  0  0  0  0  0  0  0
    5.0416   -0.7235    1.3081 C   0  0  0  0  0  0  0  0  0  0  0  0
    6.3462   -0.8064    0.7962 C   0  0  0  0  0  0  0  0  0  0  0  0
    7.3440   -0.1611    1.5082 C   0  0  0  0  0  0  0  0  0  0  0  0
    7.0706    0.5303    2.6940 C   0  0  0  0  0  0  0  0  0  0  0  0
    5.7939    0.6205    3.2102 C   0  0  0  0  0  0  0  0  0  0  0  0
    8.2311    1.0386    3.1971 O   0  0  0  0  0  0  0  0  0  0  0  0
    9.2549    0.7324    2.2520 C   0  0  0  0  0  0  0  0  0  0  0  0
    8.6782   -0.1027    1.2472 O   0  0  0  0  0  0  0  0  0  0  0  0
   -1.7924    0.1082    4.8357 C   0  0  0  0  0  0  0  0  0  0  0  0
   -3.1502    0.0885    4.4711 C   0  0  0  0  0  0  0  0  0  0  0  0
   -4.1460    0.1198    5.4473 C   0  0  0  0  0  0  0  0  0  0  0  0
   -3.8061    0.1716    6.8025 C   0  0  0  0  0  0  0  0  0  0  0  0
   -2.4576    0.1930    7.1751 C   0  0  0  0  0  0  0  0  0  0  0  0
   -1.4602    0.1625    6.2017 C   0  0  0  0  0  0  0  0  0  0  0  0
    2.2829   -0.0525   -0.4559 Au  0  0  0  0  0  0  0  0  0  0  0  0
    1.2555    0.0162    4.7909 H   0  0  0  0  0  0  0  0  0  0  0  0
    3.2468    0.4446    4.0264 H   0  0  0  0  0  0  0  0  0  0  0  0
    4.2352   -1.2708    0.8118 H   0  0  0  0  0  0  0  0  0  0  0  0
    6.5738   -1.3720   -0.1078 H   0  0  0  0  0  0  0  0  0  0  0  0
    5.5971    1.1700    4.1320 H   0  0  0  0  0  0  0  0  0  0  0  0
    9.6274    1.6653    1.7900 H   0  0  0  0  0  0  0  0  0  0  0  0
   10.0765    0.1950    2.7538 H   0  0  0  0  0  0  0  0  0  0  0  0
   -3.3983    0.0483    3.4098 H   0  0  0  0  0  0  0  0  0  0  0  0
   -5.1971    0.1037    5.1481 H   0  0  0  0  0  0  0  0  0  0  0  0
   -4.5872    0.1961    7.5662 H   0  0  0  0  0  0  0  0  0  0  0  0
   -2.1824    0.2349    8.2318 H   0  0  0  0  0  0  0  0  0  0  0  0
   -0.4117    0.1837    6.5076 H   0  0  0  0  0  0  0  0  0  0  0  0
  1  2  1  0  0  0  0
  2  3  2  0  0  0  0
  2  6  1  0  0  0  0
  3  4  2  0  0  0  0
  4  5  1  0  0  0  0
  4 18  1  0  0  0  0
  5 25  1  0  0  0  0
  6  5  1  0  0  0  0
  7  6  1  0  0  0  0
  7  8  2  0  0  0  0
  8 26  1  0  0  0  0
  9  8  1  0  0  0  0
  9 14  2  0  0  0  0
 10  9  1  0  0  0  0
 11 10  2  0  0  0  0
 11 12  1  0  0  0  0
 12 13  2  0  0  0  0
 13 15  1  0  0  0  0
 13 14  1  0  0  0  0
 14 29  1  0  0  0  0
 16 31  1  0  0  0  0
 16 15  1  0  0  0  0
 17 12  1  0  0  0  0
 17 16  1  0  0  0  0
 18 23  1  0  0  0  0
 19 18  2  0  0  0  0
 19 20  1  0  0  0  0
 20 21  2  0  0  0  0
 21 22  1  0  0  0  0
 21 34  1  0  0  0  0
 22 35  1  0  0  0  0
 23 36  1  0  0  0  0
 23 22  2  0  0  0  0
 24  1  1  0  0  0  0
 27 10  1  0  0  0  0
 28 11  1  0  0  0  0
 30 16  1  0  0  0  0
 32 19  1  0  0  0  0
 33 20  1  0  0  0  0
M  RAD  1   5   2
M  END
