044-227-245.xyz
 OpenBabel07262113423D
Oc1ccc(c(c1)O)C=Nn1cc(nc1S)c1ccccc1
 35 37  0  0  0  0  0  0  0  0999 V2000
    7.7725   -0.2425   -1.4362 O   0  0  0  0  0  0  0  0  0  0  0  0
    6.6005   -0.2727   -0.7643 C   0  0  0  0  0  0  0  0  0  0  0  0
    6.4965    0.1492    0.5773 C   0  0  0  0  0  0  0  0  0  0  0  0
    5.2676    0.0888    1.2155 C   0  0  0  0  0  0  0  0  0  0  0  0
    4.1268   -0.4017    0.5545 C   0  0  0  0  0  0  0  0  0  0  0  0
    4.2357   -0.7766   -0.8102 C   0  0  0  0  0  0  0  0  0  0  0  0
    5.4730   -0.7247   -1.4551 C   0  0  0  0  0  0  0  0  0  0  0  0
    3.1680   -1.1655   -1.5415 O   0  0  0  0  0  0  0  0  0  0  0  0
    2.8398   -0.5389    1.2059 C   0  0  0  0  0  0  0  0  0  0  0  0
    2.4594    0.1815    2.2026 N   0  0  0  0  0  0  0  0  0  0  0  0
    1.1411   -0.0000    2.5651 N   0  0  0  0  0  0  0  0  0  0  0  0
    0.7085    0.0766    3.8579 C   0  0  0  0  0  0  0  0  0  0  0  0
   -0.6850    0.0683    3.8047 C   0  0  0  0  0  0  0  0  0  0  0  0
   -1.0857    0.0440    2.4973 N   0  0  0  0  0  0  0  0  0  0  0  0
   -0.0000    0.0000    1.7468 C   0  0  0  0  0  0  0  0  0  0  0  0
    0.0000    0.0000    0.0000 S   0  0  0  0  0  0  0  0  0  0  0  0
   -1.6466    0.0860    4.9129 C   0  0  0  0  0  0  0  0  0  0  0  0
   -3.0256    0.0977    4.6374 C   0  0  0  0  0  0  0  0  0  0  0  0
   -3.9546    0.1195    5.6769 C   0  0  0  0  0  0  0  0  0  0  0  0
   -3.5262    0.1298    7.0082 C   0  0  0  0  0  0  0  0  0  0  0  0
   -2.1569    0.1169    7.2921 C   0  0  0  0  0  0  0  0  0  0  0  0
   -1.2251    0.0941    6.2546 C   0  0  0  0  0  0  0  0  0  0  0  0
    8.4674    0.1041   -0.8610 H   0  0  0  0  0  0  0  0  0  0  0  0
    7.3822    0.5105    1.1070 H   0  0  0  0  0  0  0  0  0  0  0  0
    5.1661    0.4001    2.2567 H   0  0  0  0  0  0  0  0  0  0  0  0
    5.5504   -1.0089   -2.5043 H   0  0  0  0  0  0  0  0  0  0  0  0
    2.3310   -0.9303   -1.1067 H   0  0  0  0  0  0  0  0  0  0  0  0
    2.1598   -1.2932    0.7913 H   0  0  0  0  0  0  0  0  0  0  0  0
    1.4208    0.1252    4.6759 H   0  0  0  0  0  0  0  0  0  0  0  0
    0.8420    2.1062   -0.5169 Au  0  0  0  0  0  0  0  0  0  0  0  0
   -3.3452    0.0894    3.5944 H   0  0  0  0  0  0  0  0  0  0  0  0
   -5.0230    0.1285    5.4469 H   0  0  0  0  0  0  0  0  0  0  0  0
   -4.2556    0.1466    7.8216 H   0  0  0  0  0  0  0  0  0  0  0  0
   -1.8125    0.1232    8.3291 H   0  0  0  0  0  0  0  0  0  0  0  0
   -0.1589    0.0809    6.4924 H   0  0  0  0  0  0  0  0  0  0  0  0
  1 23  1  0  0  0  0
  1  2  1  0  0  0  0
  2  3  2  0  0  0  0
  3 24  1  0  0  0  0
  3  4  1  0  0  0  0
  4 25  1  0  0  0  0
  5  9  1  0  0  0  0
  5  4  2  0  0  0  0
  6  5  1  0  0  0  0
  7  6  2  0  0  0  0
  7  2  1  0  0  0  0
  8 27  1  0  0  0  0
  8  6  1  0  0  0  0
  9 10  1  0  0  0  0
 10 11  1  0  0  0  0
 11 12  1  0  0  0  0
 12 29  1  0  0  0  0
 13 12  1  0  0  0  0
 13 17  1  0  0  0  0
 14 13  2  0  0  0  0
 15 14  2  0  0  0  0
 15 11  1  0  0  0  0
 16 15  1  0  0  0  0
 17 22  1  0  0  0  0
 18 17  2  0  0  0  0
 18 19  1  0  0  0  0
 19 20  2  0  0  0  0
 20 21  1  0  0  0  0
 20 33  1  0  0  0  0
 21 34  1  0  0  0  0
 22 35  1  0  0  0  0
 22 21  2  0  0  0  0
 26  7  1  0  0  0  0
 28  9  1  0  0  0  0
 30 16  1  0  0  0  0
 31 18  1  0  0  0  0
 32 19  1  0  0  0  0
M  RAD  3   9   2  10   2  12   2
M  END
