044-407-452.xyz
 OpenBabel07262113423D
Clc1ccc(cc1)c1ccc(o1)C=Nn1c(C)nnc1S
 32 34  0  0  0  0  0  0  0  0999 V2000
    1.4609   -0.0086    5.0929 C   0  0  0  0  0  0  0  0  0  0  0  0
    0.6046   -0.0066    3.8794 C   0  0  0  0  0  0  0  0  0  0  0  0
   -0.6978   -0.0095    3.8295 N   0  0  0  0  0  0  0  0  0  0  0  0
   -1.0770   -0.0056    2.5101 N   0  0  0  0  0  0  0  0  0  0  0  0
    0.0000    0.0000    1.7540 C   0  0  0  0  0  0  0  0  0  0  0  0
    0.0000    0.0000    0.0000 S   0  0  0  0  0  0  0  0  0  0  0  0
    1.1218    0.0000    2.5846 N   0  0  0  0  0  0  0  0  0  0  0  0
    2.4619    0.0023    2.3844 N   0  0  0  0  0  0  0  0  0  0  0  0
    2.9573    0.0263    1.1985 C   0  0  0  0  0  0  0  0  0  0  0  0
    4.3838    0.0266    1.0078 C   0  0  0  0  0  0  0  0  0  0  0  0
    5.4681    0.0026    1.8605 C   0  0  0  0  0  0  0  0  0  0  0  0
    6.6248    0.0189    1.0382 C   0  0  0  0  0  0  0  0  0  0  0  0
    6.1836    0.0518   -0.2728 C   0  0  0  0  0  0  0  0  0  0  0  0
    4.8250    0.0563   -0.2841 O   0  0  0  0  0  0  0  0  0  0  0  0
    6.8699    0.0806   -1.5548 C   0  0  0  0  0  0  0  0  0  0  0  0
    8.2768    0.0764   -1.6166 C   0  0  0  0  0  0  0  0  0  0  0  0
    8.9398    0.1040   -2.8395 C   0  0  0  0  0  0  0  0  0  0  0  0
    8.1974    0.1364   -4.0248 C   0  0  0  0  0  0  0  0  0  0  0  0
    9.0244    0.1712   -5.5601 Cl  0  0  0  0  0  0  0  0  0  0  0  0
    6.8001    0.1411   -3.9890 C   0  0  0  0  0  0  0  0  0  0  0  0
    6.1442    0.1134   -2.7610 C   0  0  0  0  0  0  0  0  0  0  0  0
    2.1172   -0.8924    5.1164 H   0  0  0  0  0  0  0  0  0  0  0  0
    0.8079   -0.0155    5.9748 H   0  0  0  0  0  0  0  0  0  0  0  0
    2.1096    0.8805    5.1249 H   0  0  0  0  0  0  0  0  0  0  0  0
   -2.3259   -0.0206   -0.1731 Au  0  0  0  0  0  0  0  0  0  0  0  0
    2.3522    0.0486    0.2807 H   0  0  0  0  0  0  0  0  0  0  0  0
    5.4158   -0.0236    2.9457 H   0  0  0  0  0  0  0  0  0  0  0  0
    7.6603    0.0077    1.3679 H   0  0  0  0  0  0  0  0  0  0  0  0
    8.8636    0.0511   -0.6966 H   0  0  0  0  0  0  0  0  0  0  0  0
   10.0296    0.1006   -2.8833 H   0  0  0  0  0  0  0  0  0  0  0  0
    6.2350    0.1665   -4.9217 H   0  0  0  0  0  0  0  0  0  0  0  0
    5.0542    0.1170   -2.7290 H   0  0  0  0  0  0  0  0  0  0  0  0
  1 22  1  0  0  0  0
  1 24  1  0  0  0  0
  1 23  1  0  0  0  0
  2  1  1  0  0  0  0
  3  2  2  0  0  0  0
  4  3  1  0  0  0  0
  5  4  2  0  0  0  0
  5  7  1  0  0  0  0
  6  5  1  0  0  0  0
  7  2  1  0  0  0  0
  8  7  1  0  0  0  0
  9  8  2  0  0  0  0
 10  9  1  0  0  0  0
 10 11  2  0  0  0  0
 11 27  1  0  0  0  0
 12 28  1  0  0  0  0
 12 11  1  0  0  0  0
 13 12  2  0  0  0  0
 14 13  1  0  0  0  0
 14 10  1  0  0  0  0
 15 13  1  0  0  0  0
 16 15  1  0  0  0  0
 16 29  1  0  0  0  0
 17 16  2  0  0  0  0
 18 20  2  0  0  0  0
 18 17  1  0  0  0  0
 19 18  1  0  0  0  0
 20 21  1  0  0  0  0
 21 32  1  0  0  0  0
 21 15  2  0  0  0  0
 25  6  1  0  0  0  0
 26  9  1  0  0  0  0
 30 17  1  0  0  0  0
 31 20  1  0  0  0  0
M  END
