044-593-189.xyz
 OpenBabel07262113423D
Sc1oc2c(n1)ccc(c2)C(=O)Nc1cc(ccc1C)c1nccnc1
 40 43  0  0  1  0  0  0  0  0999 V2000
    0.0000    0.0000    0.0000 S   0  0  0  0  0  0  0  0  0  0  0  0
    0.0000   -0.0000    1.7467 C   0  0  0  0  0  0  0  0  0  0  0  0
    1.1916   -0.0000    2.4346 O   0  0  0  0  0  0  0  0  0  0  0  0
    0.8216   -0.0410    3.7561 C   0  0  0  0  0  0  0  0  0  0  0  0
   -0.5871   -0.0700    3.7892 C   0  0  0  0  0  0  0  0  0  0  0  0
   -1.0644   -0.0345    2.4853 N   0  0  0  0  0  0  0  0  0  0  0  0
   -1.2454   -0.1060    5.0227 C   0  0  0  0  0  0  0  0  0  0  0  0
   -0.4567   -0.1229    6.1738 C   0  0  0  0  0  0  0  0  0  0  0  0
    0.9561   -0.1068    6.1190 C   0  0  1  0  0  0  0  0  0  0  0  0
    1.6219   -0.0465    4.8817 C   0  0  0  0  0  0  0  0  0  0  0  0
    1.8347   -0.1129    7.3393 C   0  0  0  0  0  0  0  0  0  0  0  0
    2.9973    0.2579    7.2825 O   0  0  0  0  0  0  0  0  0  0  0  0
    1.2316   -0.5805    8.4842 N   0  0  0  0  0  0  0  0  0  0  0  0
    1.7533   -0.6790    9.7868 C   0  0  0  0  0  0  0  0  0  0  0  0
    3.0601   -0.2825   10.0998 C   0  0  0  0  0  0  0  0  0  0  0  0
    3.5452   -0.3890   11.4121 C   0  0  0  0  0  0  0  0  0  0  0  0
    2.7049   -0.9026   12.4113 C   0  0  0  0  0  0  0  0  0  0  0  0
    1.4076   -1.2957   12.0936 C   0  0  0  0  0  0  0  0  0  0  0  0
    0.9019   -1.1962   10.7933 C   0  0  0  0  0  0  0  0  0  0  0  0
   -0.5085   -1.6200   10.4752 C   0  0  0  0  0  0  0  0  0  0  0  0
    4.9267    0.0278   11.7609 C   0  0  0  0  0  0  0  0  0  0  0  0
    5.3198   -0.1258   13.0357 N   0  0  0  0  0  0  0  0  0  0  0  0
    6.5552    0.2438   13.3581 C   0  0  0  0  0  0  0  0  0  0  0  0
    7.4344    0.7785   12.4115 C   0  0  0  0  0  0  0  0  0  0  0  0
    7.0632    0.9407   11.1399 N   0  0  0  0  0  0  0  0  0  0  0  0
    5.8262    0.5713   10.8172 C   0  0  0  0  0  0  0  0  0  0  0  0
    2.2094    0.4536   -0.4722 Au  0  0  0  0  0  0  0  0  0  0  0  0
   -2.3348   -0.1061    5.0741 H   0  0  0  0  0  0  0  0  0  0  0  0
   -0.9630   -0.1093    7.1415 H   0  0  0  0  0  0  0  0  0  0  0  0
    2.7103   -0.0071    4.8503 H   0  0  0  0  0  0  0  0  0  0  0  0
    0.3036   -0.9606    8.3631 H   0  0  0  0  0  0  0  0  0  0  0  0
    3.6739    0.1006    9.2919 H   0  0  0  0  0  0  0  0  0  0  0  0
    3.0877   -0.9846   13.4280 H   0  0  0  0  0  0  0  0  0  0  0  0
    0.7588   -1.6934   12.8784 H   0  0  0  0  0  0  0  0  0  0  0  0
   -0.5393   -2.4313    9.7256 H   0  0  0  0  0  0  0  0  0  0  0  0
   -1.0191   -1.9912   11.3741 H   0  0  0  0  0  0  0  0  0  0  0  0
   -1.1108   -0.7828   10.0789 H   0  0  0  0  0  0  0  0  0  0  0  0
    6.8646    0.1139   14.4016 H   0  0  0  0  0  0  0  0  0  0  0  0
    8.4508    1.0786   12.6889 H   0  0  0  0  0  0  0  0  0  0  0  0
    5.5331    0.7109    9.7734 H   0  0  0  0  0  0  0  0  0  0  0  0
  1  2  1  0  0  0  0
  2  3  1  0  0  0  0
  2  6  2  0  0  0  0
  3  4  1  0  0  0  0
  4  5  1  0  0  0  0
  4 10  2  0  0  0  0
  5  7  1  0  0  0  0
  6  5  2  0  0  0  0
  7 28  1  0  0  0  0
  7  8  2  0  0  0  0
  8 29  1  0  0  0  0
  9  8  1  0  0  0  0
  9 11  1  1  0  0  0
 10  9  1  0  0  0  0
 11 13  1  0  0  0  0
 12 11  2  0  0  0  0
 13 14  1  0  0  0  0
 14 15  2  0  0  0  0
 14 19  1  0  0  0  0
 15 16  1  0  0  0  0
 16 21  1  0  0  0  0
 16 17  2  0  0  0  0
 17 33  1  0  0  0  0
 18 17  1  0  0  0  0
 18 34  1  0  0  0  0
 19 18  2  0  0  0  0
 20 19  1  0  0  0  0
 20 36  1  0  0  0  0
 21 22  2  0  0  0  0
 22 23  2  0  0  0  0
 23 38  1  0  0  0  0
 24 39  1  0  0  0  0
 24 23  1  0  0  0  0
 25 24  2  0  0  0  0
 26 25  2  0  0  0  0
 26 21  1  0  0  0  0
 27  1  1  0  0  0  0
 30 10  1  0  0  0  0
 31 13  1  0  0  0  0
 32 15  1  0  0  0  0
 35 20  1  0  0  0  0
 37 20  1  0  0  0  0
 40 26  1  0  0  0  0
M  RAD  1   9   2
M  END
