044-290-085.xyz
 OpenBabel07262113423D
Cc1ccc(s1)C=Nn1cc(nc1S)c1ccccc1
 33 35  0  0  0  0  0  0  0  0999 V2000
    8.6807    0.3385    2.2991 C   0  0  0  0  0  0  0  0  0  0  0  0
    7.2165    0.0634    2.1619 C   0  0  0  0  0  0  0  0  0  0  0  0
    6.5655   -0.6382    1.1695 C   0  0  0  0  0  0  0  0  0  0  0  0
    5.1591   -0.7170    1.3561 C   0  0  0  0  0  0  0  0  0  0  0  0
    4.7267   -0.0569    2.4941 C   0  0  0  0  0  0  0  0  0  0  0  0
    6.0804    0.6424    3.3470 S   0  0  0  0  0  0  0  0  0  0  0  0
    3.3761    0.1115    2.9914 C   0  0  0  0  0  0  0  0  0  0  0  0
    2.3801   -0.0788    2.1996 N   0  0  0  0  0  0  0  0  0  0  0  0
    1.1100   -0.0000    2.6201 N   0  0  0  0  0  0  0  0  0  0  0  0
    0.6081    0.0421    3.9222 C   0  0  0  0  0  0  0  0  0  0  0  0
   -0.7622    0.0620    3.7909 C   0  0  0  0  0  0  0  0  0  0  0  0
   -1.1084    0.0387    2.4483 N   0  0  0  0  0  0  0  0  0  0  0  0
    0.0000    0.0000    1.7571 C   0  0  0  0  0  0  0  0  0  0  0  0
    0.0000    0.0000    0.0000 S   0  0  0  0  0  0  0  0  0  0  0  0
   -1.7907    0.0945    4.8357 C   0  0  0  0  0  0  0  0  0  0  0  0
   -3.1487    0.0729    4.4716 C   0  0  0  0  0  0  0  0  0  0  0  0
   -4.1441    0.1000    5.4482 C   0  0  0  0  0  0  0  0  0  0  0  0
   -3.8036    0.1492    6.8033 C   0  0  0  0  0  0  0  0  0  0  0  0
   -2.4550    0.1723    7.1756 C   0  0  0  0  0  0  0  0  0  0  0  0
   -1.4580    0.1462    6.2017 C   0  0  0  0  0  0  0  0  0  0  0  0
    8.8960    1.4197    2.2915 H   0  0  0  0  0  0  0  0  0  0  0  0
    9.2263   -0.1214    1.4627 H   0  0  0  0  0  0  0  0  0  0  0  0
    9.0880   -0.0715    3.2378 H   0  0  0  0  0  0  0  0  0  0  0  0
    7.0959   -1.1021    0.3364 H   0  0  0  0  0  0  0  0  0  0  0  0
    4.4810   -1.2842    0.7143 H   0  0  0  0  0  0  0  0  0  0  0  0
    3.2435    0.4199    4.0391 H   0  0  0  0  0  0  0  0  0  0  0  0
    1.2563    0.0077    4.7902 H   0  0  0  0  0  0  0  0  0  0  0  0
    2.2834   -0.0403   -0.4554 Au  0  0  0  0  0  0  0  0  0  0  0  0
   -3.3972    0.0348    3.4102 H   0  0  0  0  0  0  0  0  0  0  0  0
   -5.1952    0.0826    5.1495 H   0  0  0  0  0  0  0  0  0  0  0  0
   -4.5843    0.1705    7.5674 H   0  0  0  0  0  0  0  0  0  0  0  0
   -2.1794    0.2124    8.2323 H   0  0  0  0  0  0  0  0  0  0  0  0
   -0.4093    0.1688    6.5073 H   0  0  0  0  0  0  0  0  0  0  0  0
  1 23  1  0  0  0  0
  2  1  1  0  0  0  0
  2  6  1  0  0  0  0
  3  4  1  0  0  0  0
  3  2  2  0  0  0  0
  4  5  2  0  0  0  0
  5  7  1  0  0  0  0
  5  6  1  0  0  0  0
  7 26  1  0  0  0  0
  8  9  1  0  0  0  0
  8  7  2  0  0  0  0
  9 10  1  0  0  0  0
 10 27  1  0  0  0  0
 11 10  1  0  0  0  0
 11 15  1  0  0  0  0
 12 11  2  0  0  0  0
 13 12  2  0  0  0  0
 13  9  1  0  0  0  0
 14 13  1  0  0  0  0
 15 20  1  0  0  0  0
 16 15  2  0  0  0  0
 16 17  1  0  0  0  0
 17 18  2  0  0  0  0
 18 19  1  0  0  0  0
 18 31  1  0  0  0  0
 19 32  1  0  0  0  0
 20 33  1  0  0  0  0
 20 19  2  0  0  0  0
 21  1  1  0  0  0  0
 22  1  1  0  0  0  0
 24  3  1  0  0  0  0
 25  4  1  0  0  0  0
 28 14  1  0  0  0  0
 29 16  1  0  0  0  0
 30 17  1  0  0  0  0
M  RAD  1  10   2
M  END
