046-509-411.xyz
 OpenBabel07262113423D
COc1ccc(cc1)C=C1N=C(N(C1=O)c1cc(C)cc(c1)C)S
 42 44  0  0  0  0  0  0  0  0999 V2000
   -7.8566    0.6689    6.3876 C   0  0  0  0  0  0  0  0  0  0  0  0
   -7.1781    0.5633    5.1562 O   0  0  0  0  0  0  0  0  0  0  0  0
   -5.8280    0.4927    5.1503 C   0  0  0  0  0  0  0  0  0  0  0  0
   -5.0278    0.5168    6.3043 C   0  0  0  0  0  0  0  0  0  0  0  0
   -3.6424    0.4374    6.1777 C   0  0  0  0  0  0  0  0  0  0  0  0
   -3.0135    0.3332    4.9210 C   0  0  0  0  0  0  0  0  0  0  0  0
   -1.5703    0.2547    4.8662 C   0  0  0  0  0  0  0  0  0  0  0  0
   -0.7521    0.1501    3.7817 C   0  0  0  0  0  0  0  0  0  0  0  0
   -1.1033    0.0740    2.4362 N   0  0  0  0  0  0  0  0  0  0  0  0
    0.0000   -0.0000    1.7538 C   0  0  0  0  0  0  0  0  0  0  0  0
    0.0000    0.0000    0.0000 S   0  0  0  0  0  0  0  0  0  0  0  0
    1.1541   -0.0000    2.5603 N   0  0  0  0  0  0  0  0  0  0  0  0
    0.7327    0.0820    3.9100 C   0  0  0  0  0  0  0  0  0  0  0  0
    1.4594    0.0930    4.8786 O   0  0  0  0  0  0  0  0  0  0  0  0
    2.5108   -0.0435    2.1483 C   0  0  0  0  0  0  0  0  0  0  0  0
    3.1909   -1.2734    2.1402 C   0  0  0  0  0  0  0  0  0  0  0  0
    4.5122   -1.3468    1.6731 C   0  0  0  0  0  0  0  0  0  0  0  0
    5.2724   -2.6479    1.7032 C   0  0  0  0  0  0  0  0  0  0  0  0
    5.1233   -0.1672    1.2142 C   0  0  0  0  0  0  0  0  0  0  0  0
    4.4643    1.0673    1.2331 C   0  0  0  0  0  0  0  0  0  0  0  0
    5.1369    2.3234    0.7428 C   0  0  0  0  0  0  0  0  0  0  0  0
    3.1454    1.1166    1.7118 C   0  0  0  0  0  0  0  0  0  0  0  0
   -3.8405    0.3106    3.7685 C   0  0  0  0  0  0  0  0  0  0  0  0
   -5.2173    0.3886    3.8846 C   0  0  0  0  0  0  0  0  0  0  0  0
   -7.5718    1.5858    6.9338 H   0  0  0  0  0  0  0  0  0  0  0  0
   -8.9281    0.7113    6.1522 H   0  0  0  0  0  0  0  0  0  0  0  0
   -7.6651   -0.2046    7.0360 H   0  0  0  0  0  0  0  0  0  0  0  0
   -5.4716    0.5964    7.2960 H   0  0  0  0  0  0  0  0  0  0  0  0
   -3.0251    0.4565    7.0797 H   0  0  0  0  0  0  0  0  0  0  0  0
   -1.0410    0.2802    5.8242 H   0  0  0  0  0  0  0  0  0  0  0  0
    1.8413   -1.3488   -0.4589 Au  0  0  0  0  0  0  0  0  0  0  0  0
    2.6834   -2.1609    2.5237 H   0  0  0  0  0  0  0  0  0  0  0  0
    4.5945   -3.5140    1.7155 H   0  0  0  0  0  0  0  0  0  0  0  0
    5.9436   -2.7440    0.8362 H   0  0  0  0  0  0  0  0  0  0  0  0
    5.8999   -2.7091    2.6089 H   0  0  0  0  0  0  0  0  0  0  0  0
    6.1494   -0.2152    0.8385 H   0  0  0  0  0  0  0  0  0  0  0  0
    5.1873    3.0809    1.5418 H   0  0  0  0  0  0  0  0  0  0  0  0
    6.1613    2.1263    0.3962 H   0  0  0  0  0  0  0  0  0  0  0  0
    4.5743    2.7726   -0.0918 H   0  0  0  0  0  0  0  0  0  0  0  0
    2.5910    2.0568    1.7198 H   0  0  0  0  0  0  0  0  0  0  0  0
   -3.3672    0.2292    2.7899 H   0  0  0  0  0  0  0  0  0  0  0  0
   -5.8616    0.3716    3.0037 H   0  0  0  0  0  0  0  0  0  0  0  0
  1 25  1  0  0  0  0
  1 27  1  0  0  0  0
  2  1  1  0  0  0  0
  3  2  1  0  0  0  0
  3  4  2  0  0  0  0
  4 28  1  0  0  0  0
  5  4  1  0  0  0  0
  5 29  1  0  0  0  0
  6  5  2  0  0  0  0
  7  6  1  0  0  0  0
  7 30  1  0  0  0  0
  8 13  1  0  0  0  0
  8  7  1  0  0  0  0
  9  8  2  0  0  0  0
 10  9  2  0  0  0  0
 10 12  1  0  0  0  0
 11 10  1  0  0  0  0
 12 13  1  0  0  0  0
 13 14  2  0  0  0  0
 15 12  1  0  0  0  0
 16 15  1  0  0  0  0
 16 32  1  0  0  0  0
 17 18  1  0  0  0  0
 17 16  2  0  0  0  0
 18 33  1  0  0  0  0
 18 35  1  0  0  0  0
 19 20  2  0  0  0  0
 19 17  1  0  0  0  0
 20 22  1  0  0  0  0
 21 20  1  0  0  0  0
 21 37  1  0  0  0  0
 22 40  1  0  0  0  0
 22 15  2  0  0  0  0
 23 24  2  0  0  0  0
 23  6  1  0  0  0  0
 24  3  1  0  0  0  0
 26  1  1  0  0  0  0
 31 11  1  0  0  0  0
 34 18  1  0  0  0  0
 36 19  1  0  0  0  0
 38 21  1  0  0  0  0
 39 21  1  0  0  0  0
 41 23  1  0  0  0  0
 42 24  1  0  0  0  0
M  RAD  1   7   2
M  END
