046-701-820.xyz
 OpenBabel07262113423D
CCn1ncc2c1nc(S)nc2O
 21 22  0  0  1  0  0  0  0  0999 V2000
    3.8861   -1.4582    4.8535 C   0  0  0  0  0  0  0  0  0  0  0  0
    3.3311   -0.0605    4.5995 C   0  0  0  0  0  0  0  0  0  0  0  0
    1.8896    0.0010    4.7652 N   0  0  0  0  0  0  0  0  0  0  0  0
    1.3285   -0.0171    6.0010 N   0  0  0  0  0  0  0  0  0  0  0  0
    0.0188   -0.0179    5.8337 C   0  0  0  0  0  0  0  0  0  0  0  0
   -0.3112   -0.0087    4.4433 C   0  0  2  0  0  0  0  0  0  0  0  0
   -1.4289   -0.0043    3.5734 C   0  0  0  0  0  0  0  0  0  0  0  0
   -2.6959   -0.0045    4.0074 O   0  0  0  0  0  0  0  0  0  0  0  0
   -1.2533   -0.0012    2.2682 N   0  0  0  0  0  0  0  0  0  0  0  0
    0.0000   -0.0000    1.7713 C   0  0  0  0  0  0  0  0  0  0  0  0
    0.0000    0.0000    0.0000 S   0  0  0  0  0  0  0  0  0  0  0  0
    1.1374    0.0000    2.4629 N   0  0  0  0  0  0  0  0  0  0  0  0
    0.9445   -0.0028    3.7862 C   0  0  0  0  0  0  0  0  0  0  0  0
    3.4663   -2.1811    4.1371 H   0  0  0  0  0  0  0  0  0  0  0  0
    4.9818   -1.4598    4.7457 H   0  0  0  0  0  0  0  0  0  0  0  0
    3.6356   -1.7907    5.8719 H   0  0  0  0  0  0  0  0  0  0  0  0
    3.7737    0.6719    5.2912 H   0  0  0  0  0  0  0  0  0  0  0  0
    3.5367    0.2684    3.5709 H   0  0  0  0  0  0  0  0  0  0  0  0
   -0.6357   -0.0226    6.7056 H   0  0  0  0  0  0  0  0  0  0  0  0
   -2.7079   -0.0050    4.9742 H   0  0  0  0  0  0  0  0  0  0  0  0
    2.2529   -0.0046   -0.4704 Au  0  0  0  0  0  0  0  0  0  0  0  0
  1 16  1  0  0  0  0
  2  3  1  0  0  0  0
  2  1  1  0  0  0  0
  2 17  1  0  0  0  0
  3  4  1  0  0  0  0
  5  4  2  0  0  0  0
  5 19  1  0  0  0  0
  6  7  1  6  0  0  0
  6  5  1  0  0  0  0
  7  8  1  0  0  0  0
  8 20  1  0  0  0  0
  9  7  2  0  0  0  0
 10  9  2  0  0  0  0
 10 12  2  0  0  0  0
 11 10  1  0  0  0  0
 12 13  2  0  0  0  0
 13  6  1  0  0  0  0
 13  3  1  0  0  0  0
 14  1  1  0  0  0  0
 15  1  1  0  0  0  0
 18  2  1  0  0  0  0
 21 11  1  0  0  0  0
M  RAD  1   6   2
M  END
