10085066.xyz
 OpenBabel07262113423D
Clc1ccc(cc1)N1C(=NC(C1=O)Cc1ccccc1)S
 34 36  0  0  1  0  0  0  0  0999 V2000
   -6.7203    0.0774    0.1237 Cl  0  0  0  0  0  0  0  0  0  0  0  0
   -5.1116    0.0441    0.8005 C   0  0  0  0  0  0  0  0  0  0  0  0
   -4.7744   -0.9415    1.7325 C   0  0  0  0  0  0  0  0  0  0  0  0
   -3.4863   -0.9748    2.2635 C   0  0  0  0  0  0  0  0  0  0  0  0
   -2.5403   -0.0193    1.8716 C   0  0  0  0  0  0  0  0  0  0  0  0
   -2.8965    0.9814    0.9580 C   0  0  0  0  0  0  0  0  0  0  0  0
   -4.1778    1.0064    0.4087 C   0  0  0  0  0  0  0  0  0  0  0  0
   -1.2378   -0.0498    2.4347 N   0  0  0  0  0  0  0  0  0  0  0  0
   -0.0000    0.0000    1.7615 C   0  0  0  0  0  0  0  0  0  0  0  0
    1.0290   -0.0000    2.5285 N   0  0  0  0  0  0  0  0  0  0  0  0
    0.5538   -0.0387    3.9067 C   0  0  2  0  0  0  0  0  0  0  0  0
   -0.9725   -0.1248    3.8156 C   0  0  0  0  0  0  0  0  0  0  0  0
   -1.8010   -0.2173    4.6860 O   0  0  0  0  0  0  0  0  0  0  0  0
    1.0371    1.1938    4.7055 C   0  0  0  0  0  0  0  0  0  0  0  0
    0.7994    1.0916    6.1919 C   0  0  0  0  0  0  0  0  0  0  0  0
    1.7176    0.4102    7.0050 C   0  0  0  0  0  0  0  0  0  0  0  0
    1.5019    0.2819    8.3786 C   0  0  0  0  0  0  0  0  0  0  0  0
    0.3599    0.8383    8.9616 C   0  0  0  0  0  0  0  0  0  0  0  0
   -0.5610    1.5200    8.1617 C   0  0  0  0  0  0  0  0  0  0  0  0
   -0.3428    1.6431    6.7880 C   0  0  0  0  0  0  0  0  0  0  0  0
    0.0000    0.0000    0.0000 S   0  0  0  0  0  0  0  0  0  0  0  0
   -5.5176   -1.6814    2.0322 H   0  0  0  0  0  0  0  0  0  0  0  0
   -3.2138   -1.7385    2.9911 H   0  0  0  0  0  0  0  0  0  0  0  0
   -2.1694    1.7435    0.6755 H   0  0  0  0  0  0  0  0  0  0  0  0
   -4.4591    1.7763   -0.3106 H   0  0  0  0  0  0  0  0  0  0  0  0
    0.9309   -0.9476    4.4077 H   0  0  0  0  0  0  0  0  0  0  0  0
    2.1131    1.2896    4.4960 H   0  0  0  0  0  0  0  0  0  0  0  0
    0.5494    2.0906    4.2919 H   0  0  0  0  0  0  0  0  0  0  0  0
    2.6168   -0.0210    6.5548 H   0  0  0  0  0  0  0  0  0  0  0  0
    2.2299   -0.2495    8.9967 H   0  0  0  0  0  0  0  0  0  0  0  0
    0.1890    0.7418   10.0365 H   0  0  0  0  0  0  0  0  0  0  0  0
   -1.4579    1.9554    8.6088 H   0  0  0  0  0  0  0  0  0  0  0  0
   -1.0747    2.1639    6.1671 H   0  0  0  0  0  0  0  0  0  0  0  0
    2.3025   -0.0557   -0.2608 Au  0  0  0  0  0  0  0  0  0  0  0  0
  1  2  1  0  0  0  0
  2  3  1  0  0  0  0
  3 22  1  0  0  0  0
  3  4  2  0  0  0  0
  4 23  1  0  0  0  0
  5  4  1  0  0  0  0
  5  8  1  0  0  0  0
  6  5  2  0  0  0  0
  7  2  2  0  0  0  0
  7  6  1  0  0  0  0
  8 12  1  0  0  0  0
  9  8  1  0  0  0  0
  9 10  2  0  0  0  0
 10 11  1  0  0  0  0
 11 26  1  1  0  0  0
 11 14  1  0  0  0  0
 12 11  1  0  0  0  0
 12 13  2  0  0  0  0
 14 15  1  0  0  0  0
 15 20  2  0  0  0  0
 15 16  1  0  0  0  0
 16 17  2  0  0  0  0
 17 18  1  0  0  0  0
 17 30  1  0  0  0  0
 18 31  1  0  0  0  0
 19 32  1  0  0  0  0
 19 18  2  0  0  0  0
 20 19  1  0  0  0  0
 21  9  1  0  0  0  0
 24  6  1  0  0  0  0
 25  7  1  0  0  0  0
 27 14  1  0  0  0  0
 28 14  1  0  0  0  0
 29 16  1  0  0  0  0
 33 20  1  0  0  0  0
 34 21  1  0  0  0  0
M  END
