1010957.xyz
 OpenBabel07262113423D
CNc1ncnc(c1N)S
 18 18  0  0  1  0  0  0  0  0999 V2000
   -2.5156    0.0021    5.9454 C   0  0  0  0  0  0  0  0  0  0  0  0
   -2.3852    0.0005    4.5093 N   0  0  0  0  0  0  0  0  0  0  0  0
   -1.2137    0.0001    3.8362 C   0  0  0  0  0  0  0  0  0  0  0  0
   -0.0488   -0.0001    4.5106 N   0  0  0  0  0  0  0  0  0  0  0  0
    1.0614   -0.0001    3.7825 C   0  0  0  0  0  0  0  0  0  0  0  0
    1.1631    0.0000    2.4560 N   0  0  0  0  0  0  0  0  0  0  0  0
    0.0000    0.0000    1.7727 C   0  0  0  0  0  0  0  0  0  0  0  0
   -1.2398   -0.0000    2.4113 C   0  0  2  0  0  0  0  0  0  0  0  0
   -2.5062    0.0006    1.7502 N   0  0  0  0  0  0  0  0  0  0  0  0
    0.0000    0.0000    0.0000 S   0  0  0  0  0  0  0  0  0  0  0  0
   -3.0565   -0.8910    6.3043 H   0  0  0  0  0  0  0  0  0  0  0  0
   -3.0549    0.8969    6.3025 H   0  0  0  0  0  0  0  0  0  0  0  0
   -1.5085    0.0017    6.3808 H   0  0  0  0  0  0  0  0  0  0  0  0
   -3.2032    0.0013    3.9075 H   0  0  0  0  0  0  0  0  0  0  0  0
    2.0080   -0.0002    4.3374 H   0  0  0  0  0  0  0  0  0  0  0  0
   -2.5996    0.8155    1.1406 H   0  0  0  0  0  0  0  0  0  0  0  0
   -2.6025   -0.8168    1.1442 H   0  0  0  0  0  0  0  0  0  0  0  0
    2.2915    0.0045   -0.3278 Au  0  0  0  0  0  0  0  0  0  0  0  0
  1 12  1  0  0  0  0
  1 11  1  0  0  0  0
  1 13  1  0  0  0  0
  2  1  1  0  0  0  0
  3  2  1  0  0  0  0
  3  4  2  0  0  0  0
  5 15  1  0  0  0  0
  5  4  2  0  0  0  0
  6  5  2  0  0  0  0
  7  8  1  0  0  0  0
  7  6  2  0  0  0  0
  8  9  1  6  0  0  0
  8  3  1  0  0  0  0
 10  7  1  0  0  0  0
 14  2  1  0  0  0  0
 16  9  1  0  0  0  0
 17  9  1  0  0  0  0
 18 10  1  0  0  0  0
M  RAD  1   8   2
M  END
