1053658-37-9.xyz
 OpenBabel08132117233D
S[CH2][CH2][CH2][CH2]C#N
 16 15  0  0  0  0  0  0  0  0999 V2000
    1.3099   -0.1176    4.0071 C   0  0  0  0  0  0  0  0  0  0  0  0
    1.3787   -0.0000    2.4840 C   0  0  0  0  0  0  0  0  0  0  0  0
    0.0000   -0.0000    1.8329 C   0  0  0  0  0  0  0  0  0  0  0  0
    0.0000    0.0000    0.0000 S   0  0  0  0  0  0  0  0  0  0  0  0
    2.7088   -0.0986    4.6467 C   0  0  0  0  0  0  0  0  0  0  0  0
    2.6727   -0.2047    6.1058 C   0  0  0  0  0  0  0  0  0  0  0  0
    2.6184   -0.2890    7.2599 N   0  0  0  0  0  0  0  0  0  0  0  0
    0.7950   -1.0497    4.2938 H   0  0  0  0  0  0  0  0  0  0  0  0
    0.7107    0.7086    4.4251 H   0  0  0  0  0  0  0  0  0  0  0  0
    1.9769   -0.8260    2.0639 H   0  0  0  0  0  0  0  0  0  0  0  0
    1.9033    0.9311    2.2042 H   0  0  0  0  0  0  0  0  0  0  0  0
   -0.6197    0.8278    2.2091 H   0  0  0  0  0  0  0  0  0  0  0  0
   -0.5375   -0.9349    2.0731 H   0  0  0  0  0  0  0  0  0  0  0  0
    0.9884    2.0003   -0.5317 Au  0  0  0  0  0  0  0  0  0  0  0  0
    3.2383    0.8319    4.3804 H   0  0  0  0  0  0  0  0  0  0  0  0
    3.3202   -0.9284    4.2535 H   0  0  0  0  0  0  0  0  0  0  0  0
  1  8  1  0  0  0  0
  1  9  1  0  0  0  0
  1  5  1  0  0  0  0
  2  1  1  0  0  0  0
  3 13  1  0  0  0  0
  3 12  1  0  0  0  0
  3  2  1  0  0  0  0
  4  3  1  0  0  0  0
  5  6  1  0  0  0  0
  6  7  3  0  0  0  0
 10  2  1  0  0  0  0
 11  2  1  0  0  0  0
 14  4  1  0  0  0  0
 15  5  1  0  0  0  0
 16  5  1  0  0  0  0
M  END
