107106381.xyz
 OpenBabel07262113433D
SCC(N1C(=O)CCC1(C)O)C(=O)O
 27 28  0  0  1  0  0  0  0  0999 V2000
    0.0000    0.0000    0.0000 S   0  0  0  0  0  0  0  0  0  0  0  0
    0.0000    0.0000    1.8658 C   0  0  0  0  0  0  0  0  0  0  0  0
    1.3439    0.0000    2.6446 C   0  0  1  0  0  0  0  0  0  0  0  0
    1.7798   -1.2333    3.3298 N   0  0  1  0  0  0  0  0  0  0  0  0
    2.3668   -2.3669    2.8681 C   0  0  2  0  0  0  0  0  0  0  0  0
    2.5267   -2.7812    1.7072 O   0  0  0  0  0  0  0  0  0  0  0  0
    2.8381   -3.1974    4.0435 C   0  0  0  0  0  0  0  0  0  0  0  0
    2.9623   -2.1886    5.1746 C   0  0  0  0  0  0  0  0  0  0  0  0
    1.9247   -1.1013    4.8399 C   0  0  2  0  0  0  0  0  0  0  0  0
    0.5739   -1.3195    5.5082 C   0  0  0  0  0  0  0  0  0  0  0  0
    2.3570    0.1769    5.1705 O   0  0  0  0  0  0  0  0  0  0  0  0
    2.6045    0.7001    2.0684 C   0  0  0  0  0  0  0  0  0  0  0  0
    3.6178    0.6987    2.7390 O   0  0  0  0  0  0  0  0  0  0  0  0
    2.5125    1.3570    0.9356 O   0  0  0  0  0  0  0  0  0  0  0  0
    1.4436   -1.8059    0.0578 Au  0  0  0  0  0  0  0  0  0  0  0  0
   -0.5347    0.9243    2.1351 H   0  0  0  0  0  0  0  0  0  0  0  0
   -0.6068   -0.8382    2.2326 H   0  0  0  0  0  0  0  0  0  0  0  0
    1.1466    0.6653    3.4999 H   0  0  0  0  0  0  0  0  0  0  0  0
    2.0720   -3.9672    4.2391 H   0  0  0  0  0  0  0  0  0  0  0  0
    3.7653   -3.7197    3.7738 H   0  0  0  0  0  0  0  0  0  0  0  0
    3.9562   -1.7180    5.1528 H   0  0  0  0  0  0  0  0  0  0  0  0
    2.8049   -2.6045    6.1787 H   0  0  0  0  0  0  0  0  0  0  0  0
    0.6722   -1.1574    6.5909 H   0  0  0  0  0  0  0  0  0  0  0  0
    0.2073   -2.3404    5.3272 H   0  0  0  0  0  0  0  0  0  0  0  0
   -0.1669   -0.6047    5.1204 H   0  0  0  0  0  0  0  0  0  0  0  0
    3.1030    0.4042    4.5736 H   0  0  0  0  0  0  0  0  0  0  0  0
    1.6785    1.1096    0.4351 H   0  0  0  0  0  0  0  0  0  0  0  0
  1 15  1  0  0  0  0
  1  2  1  0  0  0  0
  2 16  1  0  0  0  0
  2 17  1  0  0  0  0
  2  3  1  0  0  0  0
  3  4  1  1  0  0  0
  3 18  1  0  0  0  0
  4  9  1  1  0  0  0
  5  4  1  1  0  0  0
  5  7  1  0  0  0  0
  6  5  1  0  0  0  0
  7 19  1  0  0  0  0
  7  8  1  0  0  0  0
  8 22  1  0  0  0  0
  9 11  1  1  0  0  0
  9  8  1  0  0  0  0
  9 10  1  0  0  0  0
 10 23  1  0  0  0  0
 12  3  1  0  0  0  0
 12 13  2  0  0  0  0
 14 12  1  0  0  0  0
 15  6  1  0  0  0  0
 20  7  1  0  0  0  0
 21  8  1  0  0  0  0
 24 10  1  0  0  0  0
 25 10  1  0  0  0  0
 26 11  1  0  0  0  0
 27 14  1  0  0  0  0
M  RAD  1   5   2
M  END
