107198564.xyz
 OpenBabel07262113433D
CS(=O)CC(n1c(S)ncc1C)C
 27 27  0  0  1  0  0  0  0  0999 V2000
    4.4151    1.1137   -0.9266 C   0  0  0  0  0  0  0  0  0  0  0  0
    4.6308    1.4890    0.8572 S   0  0  1  0  0  0  0  0  0  0  0  0
    4.9541    2.9612    0.9302 O   0  0  0  0  0  0  0  0  0  0  0  0
    2.8421    1.3248    1.3424 C   0  0  0  0  0  0  0  0  0  0  0  0
    2.5408    0.0071    2.0634 C   0  0  1  0  0  0  0  0  0  0  0  0
    1.1525   -0.0000    2.5308 N   0  0  0  0  0  0  0  0  0  0  0  0
    0.0000    0.0000    1.7727 C   0  0  0  0  0  0  0  0  0  0  0  0
    0.0000    0.0000    0.0000 S   0  0  0  0  0  0  0  0  0  0  0  0
   -1.0751    0.0104    2.5344 N   0  0  0  0  0  0  0  0  0  0  0  0
   -0.6220    0.0193    3.8324 C   0  0  0  0  0  0  0  0  0  0  0  0
    0.7522    0.0136    3.8705 C   0  0  2  0  0  0  0  0  0  0  0  0
    1.7037    0.0214    5.0181 C   0  0  0  0  0  0  0  0  0  0  0  0
    2.8749   -1.2511    1.2597 C   0  0  0  0  0  0  0  0  0  0  0  0
    3.9867    0.1120   -1.0678 H   0  0  0  0  0  0  0  0  0  0  0  0
    5.4132    1.1773   -1.3805 H   0  0  0  0  0  0  0  0  0  0  0  0
    3.7612    1.8922   -1.3446 H   0  0  0  0  0  0  0  0  0  0  0  0
    2.2022    1.4721    0.4602 H   0  0  0  0  0  0  0  0  0  0  0  0
    2.7096    2.1805    2.0193 H   0  0  0  0  0  0  0  0  0  0  0  0
    3.1558   -0.0133    2.9737 H   0  0  0  0  0  0  0  0  0  0  0  0
   -2.2983    0.1839   -0.2296 Au  0  0  0  0  0  0  0  0  0  0  0  0
   -1.3079    0.0312    4.6782 H   0  0  0  0  0  0  0  0  0  0  0  0
    1.1332    0.0358    5.9573 H   0  0  0  0  0  0  0  0  0  0  0  0
    2.3511   -0.8723    5.0388 H   0  0  0  0  0  0  0  0  0  0  0  0
    2.3608    0.9082    5.0176 H   0  0  0  0  0  0  0  0  0  0  0  0
    2.6233   -2.1481    1.8439 H   0  0  0  0  0  0  0  0  0  0  0  0
    2.3135   -1.2927    0.3146 H   0  0  0  0  0  0  0  0  0  0  0  0
    3.9522   -1.2802    1.0349 H   0  0  0  0  0  0  0  0  0  0  0  0
  1  2  1  0  0  0  0
  2  3  2  6  0  0  0
  2  4  1  0  0  0  0
  4 18  1  0  0  0  0
  4  5  1  0  0  0  0
  5  6  1  0  0  0  0
  5 19  1  1  0  0  0
  6 11  1  0  0  0  0
  7  6  1  0  0  0  0
  7  9  2  0  0  0  0
  8  7  1  0  0  0  0
  9 10  2  0  0  0  0
 10 11  1  0  0  0  0
 10 21  1  0  0  0  0
 11 12  1  6  0  0  0
 12 23  1  0  0  0  0
 12 22  1  0  0  0  0
 13 25  1  0  0  0  0
 13  5  1  0  0  0  0
 14  1  1  0  0  0  0
 15  1  1  0  0  0  0
 16  1  1  0  0  0  0
 17  4  1  0  0  0  0
 20  8  1  0  0  0  0
 24 12  1  0  0  0  0
 26 13  1  0  0  0  0
 27 13  1  0  0  0  0
M  RAD  1  11   2
M  END
