107279338.xyz
 OpenBabel07262113433D
COC1CCN(C1)c1nnc(n1C)S
 28 29  0  0  1  0  0  0  0  0999 V2000
    4.3019    2.0168    8.1646 C   0  0  0  0  0  0  0  0  0  0  0  0
    3.6338    2.1274    6.9345 O   0  0  0  0  0  0  0  0  0  0  0  0
    3.0632    0.9333    6.4719 C   0  0  1  0  0  0  0  0  0  0  0  0
    1.8030    0.4640    7.2173 C   0  0  0  0  0  0  0  0  0  0  0  0
    1.0645   -0.4019    6.1895 C   0  0  0  0  0  0  0  0  0  0  0  0
    1.6086    0.0217    4.8790 N   0  0  0  0  0  0  0  0  0  0  0  0
    2.5427    1.1380    5.0523 C   0  0  0  0  0  0  0  0  0  0  0  0
    0.7336    0.0326    3.8116 C   0  0  0  0  0  0  0  0  0  0  0  0
   -0.5773    0.0344    3.8561 N   0  0  0  0  0  0  0  0  0  0  0  0
   -1.0408    0.0068    2.5628 N   0  0  0  0  0  0  0  0  0  0  0  0
   -0.0000   -0.0000    1.7586 C   0  0  0  0  0  0  0  0  0  0  0  0
    1.1644    0.0000    2.4955 N   0  0  0  0  0  0  0  0  0  0  0  0
    2.5194   -0.1632    2.0149 C   0  0  0  0  0  0  0  0  0  0  0  0
    0.0000    0.0000    0.0000 S   0  0  0  0  0  0  0  0  0  0  0  0
    4.7578    2.9927    8.3845 H   0  0  0  0  0  0  0  0  0  0  0  0
    5.1036    1.2516    8.1292 H   0  0  0  0  0  0  0  0  0  0  0  0
    3.6178    1.7562    8.9950 H   0  0  0  0  0  0  0  0  0  0  0  0
    3.8219    0.1223    6.4741 H   0  0  0  0  0  0  0  0  0  0  0  0
    1.2159    1.3621    7.4683 H   0  0  0  0  0  0  0  0  0  0  0  0
    2.0155   -0.0785    8.1494 H   0  0  0  0  0  0  0  0  0  0  0  0
    1.2594   -1.4777    6.3372 H   0  0  0  0  0  0  0  0  0  0  0  0
   -0.0239   -0.2518    6.2200 H   0  0  0  0  0  0  0  0  0  0  0  0
    2.0422    2.1245    4.9987 H   0  0  0  0  0  0  0  0  0  0  0  0
    3.3526    1.1256    4.3083 H   0  0  0  0  0  0  0  0  0  0  0  0
    2.5070   -0.7620    1.0934 H   0  0  0  0  0  0  0  0  0  0  0  0
    3.0998   -0.6950    2.7815 H   0  0  0  0  0  0  0  0  0  0  0  0
    3.0007    0.8047    1.8014 H   0  0  0  0  0  0  0  0  0  0  0  0
   -2.3122   -0.1083   -0.1875 Au  0  0  0  0  0  0  0  0  0  0  0  0
  1 15  1  0  0  0  0
  1 17  1  0  0  0  0
  2  1  1  0  0  0  0
  3 18  1  1  0  0  0
  3  2  1  0  0  0  0
  3  4  1  0  0  0  0
  4 19  1  0  0  0  0
  4 20  1  0  0  0  0
  5 22  1  0  0  0  0
  5 21  1  0  0  0  0
  5  4  1  0  0  0  0
  6  7  1  0  0  0  0
  6  5  1  0  0  0  0
  7  3  1  0  0  0  0
  8  9  2  0  0  0  0
  8  6  1  0  0  0  0
 10  9  1  0  0  0  0
 11 12  1  0  0  0  0
 11 10  2  0  0  0  0
 12  8  1  0  0  0  0
 13 12  1  0  0  0  0
 13 26  1  0  0  0  0
 14 11  1  0  0  0  0
 16  1  1  0  0  0  0
 23  7  1  0  0  0  0
 24  7  1  0  0  0  0
 25 13  1  0  0  0  0
 27 13  1  0  0  0  0
 28 14  1  0  0  0  0
M  END
