107336468.xyz
 OpenBabel07262113433D
Cc1cn(c(n1)S)CC1COCCO1
 28 29  0  0  1  0  0  0  0  0999 V2000
    1.5192    0.0921    4.9896 C   0  0  0  0  0  0  0  0  0  0  0  0
    0.6008    0.0601    3.8107 C   0  0  0  0  0  0  0  0  0  0  0  0
   -0.7903    0.0891    3.8003 C   0  0  0  0  0  0  0  0  0  0  0  0
   -1.1675    0.0408    2.4869 N   0  0  0  0  0  0  0  0  0  0  0  0
    0.0000    0.0000    1.7391 C   0  0  0  0  0  0  0  0  0  0  0  0
    1.0648    0.0000    2.5307 N   0  0  0  0  0  0  0  0  0  0  0  0
    0.0000    0.0000    0.0000 S   0  0  0  0  0  0  0  0  0  0  0  0
   -2.5239    0.0870    1.9814 C   0  0  0  0  0  0  0  0  0  0  0  0
   -3.0189    1.5120    1.7456 C   0  0  1  0  0  0  0  0  0  0  0  0
   -4.4869    1.5107    1.2897 C   0  0  0  0  0  0  0  0  0  0  0  0
   -5.3311    1.3170    2.4005 O   0  0  0  0  0  0  0  0  0  0  0  0
   -5.2515    2.3691    3.3537 C   0  0  0  0  0  0  0  0  0  0  0  0
   -3.9205    3.1208    3.2451 C   0  0  0  0  0  0  0  0  0  0  0  0
   -2.8747    2.2139    2.9775 O   0  0  0  0  0  0  0  0  0  0  0  0
    2.1737   -0.7943    4.9995 H   0  0  0  0  0  0  0  0  0  0  0  0
    2.1753    0.9767    4.9499 H   0  0  0  0  0  0  0  0  0  0  0  0
    0.9562    0.1203    5.9339 H   0  0  0  0  0  0  0  0  0  0  0  0
   -1.5212    0.1645    4.6005 H   0  0  0  0  0  0  0  0  0  0  0  0
   -0.1036   -2.2549   -0.5439 Au  0  0  0  0  0  0  0  0  0  0  0  0
   -2.5550   -0.4730    1.0370 H   0  0  0  0  0  0  0  0  0  0  0  0
   -3.1902   -0.4006    2.7073 H   0  0  0  0  0  0  0  0  0  0  0  0
   -2.3855    1.9835    0.9685 H   0  0  0  0  0  0  0  0  0  0  0  0
   -4.7302    2.4463    0.7504 H   0  0  0  0  0  0  0  0  0  0  0  0
   -4.6681    0.6800    0.5915 H   0  0  0  0  0  0  0  0  0  0  0  0
   -5.3447    1.8988    4.3457 H   0  0  0  0  0  0  0  0  0  0  0  0
   -6.0975    3.0753    3.2304 H   0  0  0  0  0  0  0  0  0  0  0  0
   -3.6841    3.6211    4.1957 H   0  0  0  0  0  0  0  0  0  0  0  0
   -3.9681    3.9075    2.4670 H   0  0  0  0  0  0  0  0  0  0  0  0
  1 15  1  0  0  0  0
  1 17  1  0  0  0  0
  2  1  1  0  0  0  0
  3  2  1  0  0  0  0
  3 18  1  0  0  0  0
  4  3  1  0  0  0  0
  5  4  1  0  0  0  0
  5  6  2  0  0  0  0
  6  2  2  0  0  0  0
  7  5  1  0  0  0  0
  8  4  1  0  0  0  0
  8 21  1  0  0  0  0
  9 22  1  6  0  0  0
  9  8  1  0  0  0  0
  9 14  1  0  0  0  0
 10  9  1  0  0  0  0
 10 11  1  0  0  0  0
 11 12  1  0  0  0  0
 12 25  1  0  0  0  0
 13 12  1  0  0  0  0
 13 27  1  0  0  0  0
 14 13  1  0  0  0  0
 16  1  1  0  0  0  0
 19  7  1  0  0  0  0
 20  8  1  0  0  0  0
 23 10  1  0  0  0  0
 24 10  1  0  0  0  0
 26 12  1  0  0  0  0
 28 13  1  0  0  0  0
M  RAD  1   3   2
M  END
