107426423.xyz
 OpenBabel07262113433D
Nc1nnc(n1Cc1ncnn1C)S
 23 24  0  0  0  0  0  0  0  0999 V2000
    1.6305   -0.1218    4.8702 N   0  0  0  0  0  0  0  0  0  0  0  0
    0.7456    0.0020    3.8062 C   0  0  0  0  0  0  0  0  0  0  0  0
   -0.5591    0.0092    3.8642 N   0  0  0  0  0  0  0  0  0  0  0  0
   -1.0333   -0.0021    2.5693 N   0  0  0  0  0  0  0  0  0  0  0  0
   -0.0000    0.0000    1.7560 C   0  0  0  0  0  0  0  0  0  0  0  0
    1.1716    0.0000    2.4914 N   0  0  0  0  0  0  0  0  0  0  0  0
    2.5305   -0.1773    2.0059 C   0  0  0  0  0  0  0  0  0  0  0  0
    2.6899   -1.4097    1.1685 C   0  0  0  0  0  0  0  0  0  0  0  0
    3.3153   -1.4684    0.0043 N   0  0  0  0  0  0  0  0  0  0  0  0
    3.1887   -2.7749   -0.3470 C   0  0  0  0  0  0  0  0  0  0  0  0
    2.5249   -3.5178    0.5257 N   0  0  0  0  0  0  0  0  0  0  0  0
    2.2157   -2.6390    1.5008 N   0  0  0  0  0  0  0  0  0  0  0  0
    1.4313   -3.0491    2.6515 C   0  0  0  0  0  0  0  0  0  0  0  0
    0.0000    0.0000    0.0000 S   0  0  0  0  0  0  0  0  0  0  0  0
    2.2514    0.6793    4.9849 H   0  0  0  0  0  0  0  0  0  0  0  0
    1.1103   -0.2680    5.7331 H   0  0  0  0  0  0  0  0  0  0  0  0
    3.1793   -0.2259    2.8935 H   0  0  0  0  0  0  0  0  0  0  0  0
    2.8468    0.6781    1.3921 H   0  0  0  0  0  0  0  0  0  0  0  0
    3.5923   -3.1929   -1.2684 H   0  0  0  0  0  0  0  0  0  0  0  0
    1.8310   -2.5906    3.5664 H   0  0  0  0  0  0  0  0  0  0  0  0
    0.3767   -2.7563    2.5341 H   0  0  0  0  0  0  0  0  0  0  0  0
    1.5016   -4.1405    2.7231 H   0  0  0  0  0  0  0  0  0  0  0  0
   -2.3021    0.1826   -0.2195 Au  0  0  0  0  0  0  0  0  0  0  0  0
  1 15  1  0  0  0  0
  1 16  1  0  0  0  0
  2  3  2  0  0  0  0
  2  1  1  0  0  0  0
  4  3  1  0  0  0  0
  5  6  1  0  0  0  0
  5  4  2  0  0  0  0
  6  2  1  0  0  0  0
  7  6  1  0  0  0  0
  7 17  1  0  0  0  0
  8 12  1  0  0  0  0
  8  7  1  0  0  0  0
  9  8  2  0  0  0  0
 10  9  2  0  0  0  0
 10 11  2  0  0  0  0
 11 12  1  0  0  0  0
 12 13  1  0  0  0  0
 13 22  1  0  0  0  0
 13 20  1  0  0  0  0
 14  5  1  0  0  0  0
 18  7  1  0  0  0  0
 19 10  1  0  0  0  0
 21 13  1  0  0  0  0
 23 14  1  0  0  0  0
M  END
