107542065.xyz
 OpenBabel07262113433D
CC(c1cnn(c1)c1ccccc1)S
 26 27  0  0  1  0  0  0  0  0999 V2000
    1.4812    0.0000    2.2695 C   0  0  0  0  0  0  0  0  0  0  0  0
    0.0000    0.0000    1.8578 C   0  0  1  0  0  0  0  0  0  0  0  0
   -0.7635    1.1406    2.4598 C   0  0  0  0  0  0  0  0  0  0  0  0
   -1.5355    1.1255    3.6554 C   0  0  0  0  0  0  0  0  0  0  0  0
   -2.0544    2.3154    3.9229 N   0  0  0  0  0  0  0  0  0  0  0  0
   -1.6353    3.1213    2.9254 N   0  0  0  0  0  0  0  0  0  0  0  0
   -0.8561    2.4502    2.0219 C   0  0  0  0  0  0  0  0  0  0  0  0
   -2.0352    4.4810    2.8910 C   0  0  0  0  0  0  0  0  0  0  0  0
   -1.4459    5.3756    1.9874 C   0  0  0  0  0  0  0  0  0  0  0  0
   -1.8627    6.7075    1.9614 C   0  0  0  0  0  0  0  0  0  0  0  0
   -2.8556    7.1588    2.8343 C   0  0  0  0  0  0  0  0  0  0  0  0
   -3.4319    6.2617    3.7389 C   0  0  0  0  0  0  0  0  0  0  0  0
   -3.0303    4.9269    3.7717 C   0  0  0  0  0  0  0  0  0  0  0  0
    0.0000    0.0000    0.0000 S   0  0  0  0  0  0  0  0  0  0  0  0
    2.0116   -0.8688    1.8508 H   0  0  0  0  0  0  0  0  0  0  0  0
    1.5569   -0.0390    3.3674 H   0  0  0  0  0  0  0  0  0  0  0  0
    1.9803    0.9191    1.9261 H   0  0  0  0  0  0  0  0  0  0  0  0
   -0.4553   -0.9439    2.1908 H   0  0  0  0  0  0  0  0  0  0  0  0
   -1.7277    0.2831    4.3205 H   0  0  0  0  0  0  0  0  0  0  0  0
   -0.4592    2.9138    1.1252 H   0  0  0  0  0  0  0  0  0  0  0  0
   -0.6570    5.0450    1.3117 H   0  0  0  0  0  0  0  0  0  0  0  0
   -1.3981    7.3984    1.2540 H   0  0  0  0  0  0  0  0  0  0  0  0
   -3.1758    8.2026    2.8117 H   0  0  0  0  0  0  0  0  0  0  0  0
   -4.2080    6.6027    4.4283 H   0  0  0  0  0  0  0  0  0  0  0  0
   -3.4674    4.2134    4.4684 H   0  0  0  0  0  0  0  0  0  0  0  0
   -2.2395    0.0550   -0.4957 Au  0  0  0  0  0  0  0  0  0  0  0  0
  1 16  1  0  0  0  0
  2 18  1  1  0  0  0
  2  1  1  0  0  0  0
  2  3  1  0  0  0  0
  3  4  1  0  0  0  0
  4  5  2  0  0  0  0
  4 19  1  0  0  0  0
  6  5  1  0  0  0  0
  7  3  2  0  0  0  0
  7  6  1  0  0  0  0
  8  6  1  0  0  0  0
  8 13  2  0  0  0  0
  9  8  1  0  0  0  0
 10  9  2  0  0  0  0
 10 11  1  0  0  0  0
 11 12  2  0  0  0  0
 12 13  1  0  0  0  0
 12 24  1  0  0  0  0
 13 25  1  0  0  0  0
 14  2  1  0  0  0  0
 15  1  1  0  0  0  0
 17  1  1  0  0  0  0
 20  7  1  0  0  0  0
 21  9  1  0  0  0  0
 22 10  1  0  0  0  0
 23 11  1  0  0  0  0
 26 14  1  0  0  0  0
M  END
