107539107.xyz
 OpenBabel07262113433D
SCC1(CC1)CN1CC(C)OCC1C
 35 36  0  0  1  0  0  0  0  0999 V2000
    0.0000    0.0000    0.0000 S   0  0  0  0  0  0  0  0  0  0  0  0
   -0.0000   -0.0000    1.8452 C   0  0  0  0  0  0  0  0  0  0  0  0
    1.3588    0.0000    2.5289 C   0  0  0  0  0  0  0  0  0  0  0  0
    1.5610   -0.9654    3.6783 C   0  0  0  0  0  0  0  0  0  0  0  0
    2.1901   -1.2470    2.3442 C   0  0  0  0  0  0  0  0  0  0  0  0
    2.0860    1.3386    2.6204 C   0  0  0  0  0  0  0  0  0  0  0  0
    1.9337    2.0354    3.8818 N   0  0  0  0  0  0  0  0  0  0  0  0
    0.5921    2.3315    4.3316 C   0  0  0  0  0  0  0  0  0  0  0  0
    0.6030    2.5442    5.8654 C   0  0  1  0  0  0  0  0  0  0  0  0
    0.3977    1.2525    6.6373 C   0  0  0  0  0  0  0  0  0  0  0  0
    1.8476    3.0843    6.2959 O   0  0  0  0  0  0  0  0  0  0  0  0
    2.4340    3.9256    5.3417 C   0  0  0  0  0  0  0  0  0  0  0  0
    2.8658    3.1508    4.0792 C   0  0  2  0  0  0  0  0  0  0  0  0
    2.9836    4.1277    2.8995 C   0  0  0  0  0  0  0  0  0  0  0  0
    0.7168    2.1109   -0.5483 Au  0  0  0  0  0  0  0  0  0  0  0  0
   -0.6436    0.8159    2.2014 H   0  0  0  0  0  0  0  0  0  0  0  0
   -0.5280   -0.9423    2.0686 H   0  0  0  0  0  0  0  0  0  0  0  0
    2.1998   -0.6173    4.4932 H   0  0  0  0  0  0  0  0  0  0  0  0
    0.7118   -1.5763    3.9981 H   0  0  0  0  0  0  0  0  0  0  0  0
    3.2723   -1.1298    2.2420 H   0  0  0  0  0  0  0  0  0  0  0  0
    1.7683   -2.0397    1.7201 H   0  0  0  0  0  0  0  0  0  0  0  0
    3.1663    1.1750    2.4766 H   0  0  0  0  0  0  0  0  0  0  0  0
    1.7661    1.9581    1.7494 H   0  0  0  0  0  0  0  0  0  0  0  0
    0.1445    3.2116    3.8157 H   0  0  0  0  0  0  0  0  0  0  0  0
   -0.0622    1.4797    4.1094 H   0  0  0  0  0  0  0  0  0  0  0  0
   -0.2063    3.2607    6.1208 H   0  0  0  0  0  0  0  0  0  0  0  0
    1.1479    0.5122    6.3234 H   0  0  0  0  0  0  0  0  0  0  0  0
   -0.6082    0.8417    6.4589 H   0  0  0  0  0  0  0  0  0  0  0  0
    0.5182    1.4346    7.7155 H   0  0  0  0  0  0  0  0  0  0  0  0
    1.7374    4.7431    5.0577 H   0  0  0  0  0  0  0  0  0  0  0  0
    3.3103    4.3979    5.8100 H   0  0  0  0  0  0  0  0  0  0  0  0
    3.8624    2.7077    4.2639 H   0  0  0  0  0  0  0  0  0  0  0  0
    3.6176    4.9855    3.1776 H   0  0  0  0  0  0  0  0  0  0  0  0
    1.9953    4.5219    2.6104 H   0  0  0  0  0  0  0  0  0  0  0  0
    3.4355    3.6583    2.0137 H   0  0  0  0  0  0  0  0  0  0  0  0
  1  2  1  0  0  0  0
  2 17  1  0  0  0  0
  2 16  1  0  0  0  0
  2  3  1  0  0  0  0
  3  6  1  0  0  0  0
  3  4  1  0  0  0  0
  4 19  1  0  0  0  0
  4 18  1  0  0  0  0
  5  3  1  0  0  0  0
  5  4  1  0  0  0  0
  6  7  1  0  0  0  0
  7 13  1  0  0  0  0
  7  8  1  0  0  0  0
  8  9  1  0  0  0  0
  9 26  1  1  0  0  0
  9 11  1  0  0  0  0
  9 10  1  0  0  0  0
 10 29  1  0  0  0  0
 12 31  1  0  0  0  0
 12 11  1  0  0  0  0
 13 32  1  1  0  0  0
 13 12  1  0  0  0  0
 14 33  1  0  0  0  0
 14 13  1  0  0  0  0
 15  1  1  0  0  0  0
 20  5  1  0  0  0  0
 21  5  1  0  0  0  0
 22  6  1  0  0  0  0
 23  6  1  0  0  0  0
 24  8  1  0  0  0  0
 25  8  1  0  0  0  0
 27 10  1  0  0  0  0
 28 10  1  0  0  0  0
 30 12  1  0  0  0  0
 34 14  1  0  0  0  0
 35 14  1  0  0  0  0
M  END
