107672983.xyz
 OpenBabel07262113433D
Cn1ncc(c1)CCn1nnnc1S
 24 25  0  0  0  0  0  0  0  0999 V2000
   -7.9795    1.9416    1.5618 C   0  0  0  0  0  0  0  0  0  0  0  0
   -6.5862    1.7129    1.2455 N   0  0  0  0  0  0  0  0  0  0  0  0
   -6.2315    1.4074   -0.0103 N   0  0  0  0  0  0  0  0  0  0  0  0
   -4.9048    1.3120    0.0145 C   0  0  0  0  0  0  0  0  0  0  0  0
   -4.3812    1.5678    1.3096 C   0  0  0  0  0  0  0  0  0  0  0  0
   -5.5124    1.8215    2.0753 C   0  0  0  0  0  0  0  0  0  0  0  0
   -2.9529    1.5074    1.7568 C   0  0  0  0  0  0  0  0  0  0  0  0
   -2.5179    0.0725    2.0934 C   0  0  0  0  0  0  0  0  0  0  0  0
   -1.1258   -0.0003    2.4999 N   0  0  0  0  0  0  0  0  0  0  0  0
   -0.7577    0.0175    3.8046 N   0  0  0  0  0  0  0  0  0  0  0  0
    0.5254    0.0096    3.8244 N   0  0  0  0  0  0  0  0  0  0  0  0
    1.0384    0.0000    2.5767 N   0  0  0  0  0  0  0  0  0  0  0  0
   -0.0000    0.0000    1.7485 C   0  0  0  0  0  0  0  0  0  0  0  0
    0.0000    0.0000    0.0000 S   0  0  0  0  0  0  0  0  0  0  0  0
   -8.5850    1.1081    1.1791 H   0  0  0  0  0  0  0  0  0  0  0  0
   -8.3356    2.8771    1.1027 H   0  0  0  0  0  0  0  0  0  0  0  0
   -8.0970    2.0063    2.6515 H   0  0  0  0  0  0  0  0  0  0  0  0
   -4.3561    1.0676   -0.8958 H   0  0  0  0  0  0  0  0  0  0  0  0
   -5.6234    2.0723    3.1285 H   0  0  0  0  0  0  0  0  0  0  0  0
   -2.7943    2.1362    2.6467 H   0  0  0  0  0  0  0  0  0  0  0  0
   -2.2923    1.8971    0.9653 H   0  0  0  0  0  0  0  0  0  0  0  0
   -3.1106   -0.3319    2.9244 H   0  0  0  0  0  0  0  0  0  0  0  0
   -2.6547   -0.5869    1.2230 H   0  0  0  0  0  0  0  0  0  0  0  0
    2.3004   -0.1118   -0.2654 Au  0  0  0  0  0  0  0  0  0  0  0  0
  1 17  1  0  0  0  0
  2  1  1  0  0  0  0
  2  6  1  0  0  0  0
  3  4  2  0  0  0  0
  3  2  1  0  0  0  0
  4  5  1  0  0  0  0
  5  7  1  0  0  0  0
  5  6  2  0  0  0  0
  6 19  1  0  0  0  0
  7  8  1  0  0  0  0
  7 20  1  0  0  0  0
  8  9  1  0  0  0  0
  8 22  1  0  0  0  0
  9 10  1  0  0  0  0
 10 11  2  0  0  0  0
 12 11  1  0  0  0  0
 13  9  1  0  0  0  0
 13 12  2  0  0  0  0
 14 13  1  0  0  0  0
 15  1  1  0  0  0  0
 16  1  1  0  0  0  0
 18  4  1  0  0  0  0
 21  7  1  0  0  0  0
 23  8  1  0  0  0  0
 24 14  1  0  0  0  0
M  END
