107799199.xyz
 OpenBabel07262113433D
SCC1(CCCC1)CN1CCCC1=O
 33 34  0  0  0  0  0  0  0  0999 V2000
    0.0000    0.0000    0.0000 S   0  0  0  0  0  0  0  0  0  0  0  0
   -0.0000   -0.0000    1.8320 C   0  0  0  0  0  0  0  0  0  0  0  0
    1.3463    0.0000    2.5847 C   0  0  0  0  0  0  0  0  0  0  0  0
    2.3736   -1.0033    1.9760 C   0  0  0  0  0  0  0  0  0  0  0  0
    3.4045   -0.1493    1.2279 C   0  0  0  0  0  0  0  0  0  0  0  0
    3.5206    1.0988    2.1088 C   0  0  0  0  0  0  0  0  0  0  0  0
    2.0689    1.3815    2.5236 C   0  0  0  0  0  0  0  0  0  0  0  0
    1.0300   -0.3118    4.0698 C   0  0  0  0  0  0  0  0  0  0  0  0
    0.2758   -1.5223    4.3179 N   0  0  0  0  0  0  0  0  0  0  0  0
    0.8683   -2.8458    4.4471 C   0  0  0  0  0  0  0  0  0  0  0  0
   -0.3573   -3.7731    4.5389 C   0  0  0  0  0  0  0  0  0  0  0  0
   -1.4446   -2.8807    5.1453 C   0  0  0  0  0  0  0  0  0  0  0  0
   -1.0333   -1.4667    4.7434 C   0  0  0  0  0  0  0  0  0  0  0  0
   -1.7072   -0.4575    4.8074 O   0  0  0  0  0  0  0  0  0  0  0  0
    0.5731    2.1334   -0.6217 Au  0  0  0  0  0  0  0  0  0  0  0  0
   -0.6618    0.7890    2.2153 H   0  0  0  0  0  0  0  0  0  0  0  0
   -0.5132   -0.9545    2.0366 H   0  0  0  0  0  0  0  0  0  0  0  0
    2.8858   -1.5430    2.7890 H   0  0  0  0  0  0  0  0  0  0  0  0
    1.8937   -1.7540    1.3305 H   0  0  0  0  0  0  0  0  0  0  0  0
    4.3634   -0.6693    1.0750 H   0  0  0  0  0  0  0  0  0  0  0  0
    3.0094    0.1251    0.2375 H   0  0  0  0  0  0  0  0  0  0  0  0
    3.9924    1.9533    1.5984 H   0  0  0  0  0  0  0  0  0  0  0  0
    4.1344    0.8726    2.9983 H   0  0  0  0  0  0  0  0  0  0  0  0
    1.9948    1.9252    3.4781 H   0  0  0  0  0  0  0  0  0  0  0  0
    1.5865    2.0197    1.7642 H   0  0  0  0  0  0  0  0  0  0  0  0
    1.9788   -0.3529    4.6338 H   0  0  0  0  0  0  0  0  0  0  0  0
    0.4241    0.5084    4.4825 H   0  0  0  0  0  0  0  0  0  0  0  0
    1.4997   -2.9035    5.3565 H   0  0  0  0  0  0  0  0  0  0  0  0
    1.5082   -3.0879    3.5874 H   0  0  0  0  0  0  0  0  0  0  0  0
   -0.1494   -4.6809    5.1220 H   0  0  0  0  0  0  0  0  0  0  0  0
   -0.6526   -4.0877    3.5255 H   0  0  0  0  0  0  0  0  0  0  0  0
   -2.4662   -3.0979    4.8048 H   0  0  0  0  0  0  0  0  0  0  0  0
   -1.4524   -2.9203    6.2484 H   0  0  0  0  0  0  0  0  0  0  0  0
  1  2  1  0  0  0  0
  2 17  1  0  0  0  0
  2 16  1  0  0  0  0
  2  3  1  0  0  0  0
  3  8  1  0  0  0  0
  4  3  1  0  0  0  0
  4 18  1  0  0  0  0
  5  4  1  0  0  0  0
  5  6  1  0  0  0  0
  6  7  1  0  0  0  0
  6 23  1  0  0  0  0
  7  3  1  0  0  0  0
  7 24  1  0  0  0  0
  8  9  1  0  0  0  0
  8 27  1  0  0  0  0
  8 26  1  0  0  0  0
  9 10  1  0  0  0  0
  9 13  1  0  0  0  0
 10 11  1  0  0  0  0
 10 28  1  0  0  0  0
 11 30  1  0  0  0  0
 11 12  1  0  0  0  0
 12 33  1  0  0  0  0
 13 14  2  0  0  0  0
 13 12  1  0  0  0  0
 15  1  1  0  0  0  0
 19  4  1  0  0  0  0
 20  5  1  0  0  0  0
 21  5  1  0  0  0  0
 22  6  1  0  0  0  0
 25  7  1  0  0  0  0
 29 10  1  0  0  0  0
 31 11  1  0  0  0  0
 32 12  1  0  0  0  0
M  END
