107705924.xyz
 OpenBabel07262113433D
SCCC(=O)NC1CCOCC1C
 30 30  0  0  1  0  0  0  0  0999 V2000
    0.0000    0.0000    0.0000 S   0  0  0  0  0  0  0  0  0  0  0  0
    0.0000   -0.0000    1.8282 C   0  0  0  0  0  0  0  0  0  0  0  0
    1.3787   -0.0000    2.4737 C   0  0  0  0  0  0  0  0  0  0  0  0
    1.2885   -0.2779    3.9721 C   0  0  0  0  0  0  0  0  0  0  0  0
    0.4170   -0.9872    4.4497 O   0  0  0  0  0  0  0  0  0  0  0  0
    2.2676    0.2958    4.7287 N   0  0  0  0  0  0  0  0  0  0  0  0
    2.3248    0.1326    6.1699 C   0  0  1  0  0  0  0  0  0  0  0  0
    3.7639    0.2039    6.6808 C   0  0  0  0  0  0  0  0  0  0  0  0
    3.7949   -0.1874    8.1719 C   0  0  0  0  0  0  0  0  0  0  0  0
    2.5499    0.0254    8.8092 O   0  0  0  0  0  0  0  0  0  0  0  0
    1.9309    1.2252    8.4025 C   0  0  0  0  0  0  0  0  0  0  0  0
    1.4300    1.1467    6.9426 C   0  0  1  0  0  0  0  0  0  0  0  0
    1.3900    2.5383    6.3137 C   0  0  0  0  0  0  0  0  0  0  0  0
    0.9935    1.9968   -0.5377 Au  0  0  0  0  0  0  0  0  0  0  0  0
   -0.5186   -0.9361    2.0934 H   0  0  0  0  0  0  0  0  0  0  0  0
   -0.6205    0.8229    2.2110 H   0  0  0  0  0  0  0  0  0  0  0  0
    1.9968   -0.7916    2.0167 H   0  0  0  0  0  0  0  0  0  0  0  0
    1.8954    0.9543    2.2749 H   0  0  0  0  0  0  0  0  0  0  0  0
    2.9072    0.9449    4.2873 H   0  0  0  0  0  0  0  0  0  0  0  0
    1.9267   -0.8708    6.3744 H   0  0  0  0  0  0  0  0  0  0  0  0
    4.4117   -0.4681    6.0970 H   0  0  0  0  0  0  0  0  0  0  0  0
    4.1548    1.2269    6.5378 H   0  0  0  0  0  0  0  0  0  0  0  0
    4.0082   -1.2616    8.2824 H   0  0  0  0  0  0  0  0  0  0  0  0
    4.5975    0.3698    8.6968 H   0  0  0  0  0  0  0  0  0  0  0  0
    2.6351    2.0773    8.5151 H   0  0  0  0  0  0  0  0  0  0  0  0
    1.0944    1.4052    9.0939 H   0  0  0  0  0  0  0  0  0  0  0  0
    0.4095    0.7334    6.9358 H   0  0  0  0  0  0  0  0  0  0  0  0
    2.4018    2.9690    6.2149 H   0  0  0  0  0  0  0  0  0  0  0  0
    0.8025    3.2299    6.9389 H   0  0  0  0  0  0  0  0  0  0  0  0
    0.9287    2.5212    5.3157 H   0  0  0  0  0  0  0  0  0  0  0  0
  1  2  1  0  0  0  0
  2 15  1  0  0  0  0
  2 16  1  0  0  0  0
  2  3  1  0  0  0  0
  3  4  1  0  0  0  0
  4  5  2  0  0  0  0
  4  6  1  0  0  0  0
  6  7  1  0  0  0  0
  7 20  1  0  0  0  0
  7  8  1  0  0  0  0
  7 12  1  1  0  0  0
  8  9  1  0  0  0  0
  9 23  1  0  0  0  0
  9 24  1  0  0  0  0
  9 10  1  0  0  0  0
 11 25  1  0  0  0  0
 11 10  1  0  0  0  0
 11 26  1  0  0  0  0
 12 27  1  1  0  0  0
 12 11  1  0  0  0  0
 13 29  1  0  0  0  0
 13 12  1  0  0  0  0
 14  1  1  0  0  0  0
 17  3  1  0  0  0  0
 18  3  1  0  0  0  0
 19  6  1  0  0  0  0
 21  8  1  0  0  0  0
 22  8  1  0  0  0  0
 28 13  1  0  0  0  0
 30 13  1  0  0  0  0
M  END
