107890557.xyz
 OpenBabel07262113433D
CCc1c(C#N)ccc(c1OC)S
 24 24  0  0  0  0  0  0  0  0999 V2000
   -2.7570    1.4976    5.2760 C   0  0  0  0  0  0  0  0  0  0  0  0
   -2.3938    0.0902    4.7792 C   0  0  0  0  0  0  0  0  0  0  0  0
   -1.1283    0.0597    3.9570 C   0  0  0  0  0  0  0  0  0  0  0  0
    0.1440    0.0738    4.5745 C   0  0  0  0  0  0  0  0  0  0  0  0
    0.2380    0.0971    6.0054 C   0  0  0  0  0  0  0  0  0  0  0  0
    0.3089    0.1204    7.1646 N   0  0  0  0  0  0  0  0  0  0  0  0
    1.3229    0.0544    3.8090 C   0  0  0  0  0  0  0  0  0  0  0  0
    1.2471   -0.0000    2.4243 C   0  0  0  0  0  0  0  0  0  0  0  0
   -0.0000    0.0000    1.7756 C   0  0  0  0  0  0  0  0  0  0  0  0
   -1.1827    0.0490    2.5527 C   0  0  0  0  0  0  0  0  0  0  0  0
   -2.4089   -0.0092    1.9517 O   0  0  0  0  0  0  0  0  0  0  0  0
   -2.8939    1.2053    1.3822 C   0  0  0  0  0  0  0  0  0  0  0  0
    0.0000    0.0000    0.0000 S   0  0  0  0  0  0  0  0  0  0  0  0
   -3.6861    1.4710    5.8662 H   0  0  0  0  0  0  0  0  0  0  0  0
   -1.9637    1.9110    5.9169 H   0  0  0  0  0  0  0  0  0  0  0  0
   -2.9084    2.1920    4.4352 H   0  0  0  0  0  0  0  0  0  0  0  0
   -2.2688   -0.5730    5.6497 H   0  0  0  0  0  0  0  0  0  0  0  0
   -3.2144   -0.3155    4.1726 H   0  0  0  0  0  0  0  0  0  0  0  0
    2.2914    0.0580    4.3111 H   0  0  0  0  0  0  0  0  0  0  0  0
    2.1550   -0.0559    1.8216 H   0  0  0  0  0  0  0  0  0  0  0  0
   -3.8466    0.9637    0.8927 H   0  0  0  0  0  0  0  0  0  0  0  0
   -3.0670    1.9600    2.1675 H   0  0  0  0  0  0  0  0  0  0  0  0
   -2.1913    1.6025    0.6337 H   0  0  0  0  0  0  0  0  0  0  0  0
   -1.4995   -1.6856   -0.4975 Au  0  0  0  0  0  0  0  0  0  0  0  0
  1 14  1  0  0  0  0
  1 15  1  0  0  0  0
  2  1  1  0  0  0  0
  2 17  1  0  0  0  0
  3  4  1  0  0  0  0
  3  2  1  0  0  0  0
  4  5  1  0  0  0  0
  5  6  3  0  0  0  0
  7 19  1  0  0  0  0
  7  4  2  0  0  0  0
  8  7  1  0  0  0  0
  9  8  2  0  0  0  0
  9 10  1  0  0  0  0
 10  3  2  0  0  0  0
 11 10  1  0  0  0  0
 12 11  1  0  0  0  0
 12 22  1  0  0  0  0
 13  9  1  0  0  0  0
 16  1  1  0  0  0  0
 18  2  1  0  0  0  0
 20  8  1  0  0  0  0
 21 12  1  0  0  0  0
 23 12  1  0  0  0  0
 24 13  1  0  0  0  0
M  END
