107889463.xyz
 OpenBabel07262113433D
ClCC(=O)c1cc(CC)c(c(c1)S)C#N
 25 25  0  0  0  0  0  0  0  0999 V2000
    5.6115    0.0023    4.2443 Cl  0  0  0  0  0  0  0  0  0  0  0  0
    4.0475    0.0012    3.3947 C   0  0  0  0  0  0  0  0  0  0  0  0
    2.8523    0.0117    4.3466 C   0  0  0  0  0  0  0  0  0  0  0  0
    2.9838    0.0214    5.5475 O   0  0  0  0  0  0  0  0  0  0  0  0
    1.4850    0.0088    3.7148 C   0  0  0  0  0  0  0  0  0  0  0  0
    0.3757    0.0163    4.5764 C   0  0  0  0  0  0  0  0  0  0  0  0
   -0.9189    0.0148    4.0741 C   0  0  0  0  0  0  0  0  0  0  0  0
   -2.1011   -0.0303    5.0136 C   0  0  0  0  0  0  0  0  0  0  0  0
   -2.6495   -1.4520    5.2052 C   0  0  0  0  0  0  0  0  0  0  0  0
   -1.1082    0.0043    2.6626 C   0  0  0  0  0  0  0  0  0  0  0  0
   -0.0000    0.0000    1.7691 C   0  0  0  0  0  0  0  0  0  0  0  0
    1.2922    0.0000    2.3339 C   0  0  0  0  0  0  0  0  0  0  0  0
    0.0000    0.0000    0.0000 S   0  0  0  0  0  0  0  0  0  0  0  0
   -2.4547    0.0020    2.1858 C   0  0  0  0  0  0  0  0  0  0  0  0
   -3.5651   -0.0044    1.8304 N   0  0  0  0  0  0  0  0  0  0  0  0
    4.0013   -0.8904    2.7521 H   0  0  0  0  0  0  0  0  0  0  0  0
    4.0067    0.8843    2.7399 H   0  0  0  0  0  0  0  0  0  0  0  0
    0.5566    0.0245    5.6520 H   0  0  0  0  0  0  0  0  0  0  0  0
   -1.7880    0.3779    5.9867 H   0  0  0  0  0  0  0  0  0  0  0  0
   -2.9043    0.6235    4.6383 H   0  0  0  0  0  0  0  0  0  0  0  0
   -1.8729   -2.1219    5.6056 H   0  0  0  0  0  0  0  0  0  0  0  0
   -3.4963   -1.4485    5.9085 H   0  0  0  0  0  0  0  0  0  0  0  0
   -3.0057   -1.8743    4.2532 H   0  0  0  0  0  0  0  0  0  0  0  0
    2.1415   -0.0043    1.6503 H   0  0  0  0  0  0  0  0  0  0  0  0
   -2.2205   -0.0197   -0.6374 Au  0  0  0  0  0  0  0  0  0  0  0  0
  2  1  1  0  0  0  0
  2  3  1  0  0  0  0
  3  4  2  0  0  0  0
  5  3  1  0  0  0  0
  5  6  2  0  0  0  0
  6 18  1  0  0  0  0
  7  6  1  0  0  0  0
  7  8  1  0  0  0  0
  8  9  1  0  0  0  0
  8 19  1  0  0  0  0
  9 21  1  0  0  0  0
  9 22  1  0  0  0  0
 10  7  2  0  0  0  0
 11 12  2  0  0  0  0
 11 10  1  0  0  0  0
 12  5  1  0  0  0  0
 13 11  1  0  0  0  0
 14 10  1  0  0  0  0
 15 14  3  0  0  0  0
 16  2  1  0  0  0  0
 17  2  1  0  0  0  0
 20  8  1  0  0  0  0
 23  9  1  0  0  0  0
 24 12  1  0  0  0  0
 25 13  1  0  0  0  0
M  END
