107901280.xyz
 OpenBabel07262113433D
N#CCc1cc(C)cc(c1S)C#N
 21 21  0  0  0  0  0  0  0  0999 V2000
   -3.1364    2.3646    0.5515 N   0  0  0  0  0  0  0  0  0  0  0  0
   -2.8720    1.3219    0.9804 C   0  0  0  0  0  0  0  0  0  0  0  0
   -2.5480    0.0090    1.5513 C   0  0  0  0  0  0  0  0  0  0  0  0
   -1.2802    0.0182    2.3885 C   0  0  0  0  0  0  0  0  0  0  0  0
   -1.3951    0.0545    3.7754 C   0  0  0  0  0  0  0  0  0  0  0  0
   -0.2830    0.0650    4.6328 C   0  0  0  0  0  0  0  0  0  0  0  0
   -0.4584    0.1098    6.1279 C   0  0  0  0  0  0  0  0  0  0  0  0
    0.9728    0.0327    4.0386 C   0  0  0  0  0  0  0  0  0  0  0  0
    1.1291    0.0000    2.6363 C   0  0  0  0  0  0  0  0  0  0  0  0
    0.0000    0.0000    1.7698 C   0  0  0  0  0  0  0  0  0  0  0  0
    0.0000    0.0000    0.0000 S   0  0  0  0  0  0  0  0  0  0  0  0
    2.4739   -0.0474    2.1542 C   0  0  0  0  0  0  0  0  0  0  0  0
    3.5857   -0.0957    1.8062 N   0  0  0  0  0  0  0  0  0  0  0  0
   -3.3994   -0.3086    2.1727 H   0  0  0  0  0  0  0  0  0  0  0  0
   -2.4588   -0.7140    0.7235 H   0  0  0  0  0  0  0  0  0  0  0  0
   -2.3985    0.0731    4.2111 H   0  0  0  0  0  0  0  0  0  0  0  0
   -1.0652   -0.7387    6.4839 H   0  0  0  0  0  0  0  0  0  0  0  0
    0.5093    0.0757    6.6481 H   0  0  0  0  0  0  0  0  0  0  0  0
   -0.9768    1.0318    6.4389 H   0  0  0  0  0  0  0  0  0  0  0  0
    1.8715    0.0316    4.6586 H   0  0  0  0  0  0  0  0  0  0  0  0
    2.2090   -0.2741   -0.6270 Au  0  0  0  0  0  0  0  0  0  0  0  0
  1  2  3  0  0  0  0
  2  3  1  0  0  0  0
  3 14  1  0  0  0  0
  3  4  1  0  0  0  0
  4  5  1  0  0  0  0
  5 16  1  0  0  0  0
  5  6  2  0  0  0  0
  6  7  1  0  0  0  0
  7 19  1  0  0  0  0
  7 17  1  0  0  0  0
  7 18  1  0  0  0  0
  8  6  1  0  0  0  0
  8 20  1  0  0  0  0
  9  8  2  0  0  0  0
 10  4  2  0  0  0  0
 10  9  1  0  0  0  0
 11 10  1  0  0  0  0
 12  9  1  0  0  0  0
 13 12  3  0  0  0  0
 15  3  1  0  0  0  0
 21 11  1  0  0  0  0
M  END
