107900689.xyz
 OpenBabel07262113433D
COc1cc(C(=O)N)c(cc1S)C#N
 22 22  0  0  0  0  0  0  0  0999 V2000
   -3.5782    0.1363    2.5616 C   0  0  0  0  0  0  0  0  0  0  0  0
   -2.3538    0.0358    1.8634 O   0  0  0  0  0  0  0  0  0  0  0  0
   -1.1921    0.0988    2.5365 C   0  0  0  0  0  0  0  0  0  0  0  0
   -1.1080    0.2222    3.9290 C   0  0  0  0  0  0  0  0  0  0  0  0
    0.1271    0.2439    4.5875 C   0  0  0  0  0  0  0  0  0  0  0  0
    0.1844    0.3292    6.0909 C   0  0  0  0  0  0  0  0  0  0  0  0
    1.0121   -0.2774    6.7404 O   0  0  0  0  0  0  0  0  0  0  0  0
   -0.7925    1.1029    6.6649 N   0  0  0  0  0  0  0  0  0  0  0  0
    1.3139    0.1236    3.8357 C   0  0  0  0  0  0  0  0  0  0  0  0
    1.2277    0.0000    2.4382 C   0  0  0  0  0  0  0  0  0  0  0  0
    0.0000    0.0000    1.7703 C   0  0  0  0  0  0  0  0  0  0  0  0
    0.0000    0.0000    0.0000 S   0  0  0  0  0  0  0  0  0  0  0  0
    2.6217    0.1484    4.4280 C   0  0  0  0  0  0  0  0  0  0  0  0
    3.7188    0.1869    4.8043 N   0  0  0  0  0  0  0  0  0  0  0  0
   -3.6993   -0.6849    3.2887 H   0  0  0  0  0  0  0  0  0  0  0  0
   -3.6627    1.1020    3.0892 H   0  0  0  0  0  0  0  0  0  0  0  0
   -4.3696    0.0688    1.8049 H   0  0  0  0  0  0  0  0  0  0  0  0
   -2.0154    0.2759    4.5281 H   0  0  0  0  0  0  0  0  0  0  0  0
   -1.2612    1.8215    6.1281 H   0  0  0  0  0  0  0  0  0  0  0  0
   -0.7225    1.2388    7.6678 H   0  0  0  0  0  0  0  0  0  0  0  0
    2.1425   -0.0937    1.8520 H   0  0  0  0  0  0  0  0  0  0  0  0
   -1.2961   -1.8334   -0.5270 Au  0  0  0  0  0  0  0  0  0  0  0  0
  1 16  1  0  0  0  0
  1 15  1  0  0  0  0
  2  3  1  0  0  0  0
  2  1  1  0  0  0  0
  3  4  2  0  0  0  0
  4 18  1  0  0  0  0
  4  5  1  0  0  0  0
  5  6  1  0  0  0  0
  6  8  1  0  0  0  0
  6  7  2  0  0  0  0
  8 20  1  0  0  0  0
  9 13  1  0  0  0  0
  9  5  2  0  0  0  0
 10  9  1  0  0  0  0
 11 10  2  0  0  0  0
 11  3  1  0  0  0  0
 12 11  1  0  0  0  0
 13 14  3  0  0  0  0
 17  1  1  0  0  0  0
 19  8  1  0  0  0  0
 21 10  1  0  0  0  0
 22 12  1  0  0  0  0
M  END
