108-98-5.xyz
 OpenBabel08132117233D
Sc1[cH][cH][cH][cH][cH]1
 13 13  0  0  0  0  0  0  0  0999 V2000
    0.0061    0.1695    4.5822 C   0  0  0  0  0  0  0  0  0  0  0  0
    1.2147    0.0840    3.8829 C   0  0  0  0  0  0  0  0  0  0  0  0
    1.2150   -0.0000    2.4902 C   0  0  0  0  0  0  0  0  0  0  0  0
    0.0000   -0.0000    1.7835 C   0  0  0  0  0  0  0  0  0  0  0  0
   -1.2117    0.0896    2.4900 C   0  0  0  0  0  0  0  0  0  0  0  0
   -1.2054    0.1733    3.8829 C   0  0  0  0  0  0  0  0  0  0  0  0
    0.0000    0.0000    0.0000 S   0  0  0  0  0  0  0  0  0  0  0  0
   -0.0881   -2.2416   -0.5213 Au  0  0  0  0  0  0  0  0  0  0  0  0
    2.1524   -0.0672    1.9350 H   0  0  0  0  0  0  0  0  0  0  0  0
   -2.1515    0.0920    1.9349 H   0  0  0  0  0  0  0  0  0  0  0  0
    2.1628    0.0832    4.4262 H   0  0  0  0  0  0  0  0  0  0  0  0
   -2.1511    0.2424    4.4260 H   0  0  0  0  0  0  0  0  0  0  0  0
    0.0085    0.2340    5.6729 H   0  0  0  0  0  0  0  0  0  0  0  0
  1 13  1  0  0  0  0
  2 11  1  0  0  0  0
  2  1  1  0  0  0  0
  3  2  2  0  0  0  0
  4  5  2  0  0  0  0
  4  3  1  0  0  0  0
  5  6  1  0  0  0  0
  6 12  1  0  0  0  0
  6  1  2  0  0  0  0
  7  4  1  0  0  0  0
  8  7  1  0  0  0  0
  9  3  1  0  0  0  0
 10  5  1  0  0  0  0
M  END
