108169250.xyz
 OpenBabel07262113433D
N#CCc1c(S)ccc(c1F)I
 17 17  0  0  0  0  0  0  0  0999 V2000
    3.2297    2.5618    1.3740 N   0  0  0  0  0  0  0  0  0  0  0  0
    2.9624    1.4627    1.6325 C   0  0  0  0  0  0  0  0  0  0  0  0
    2.5647    0.0804    1.9223 C   0  0  0  0  0  0  0  0  0  0  0  0
    1.1884    0.0000    2.5492 C   0  0  0  0  0  0  0  0  0  0  0  0
   -0.0000   -0.0000    1.7838 C   0  0  0  0  0  0  0  0  0  0  0  0
    0.0000    0.0000    0.0000 S   0  0  0  0  0  0  0  0  0  0  0  0
   -1.2393   -0.0864    2.4416 C   0  0  0  0  0  0  0  0  0  0  0  0
   -1.3135   -0.1716    3.8301 C   0  0  0  0  0  0  0  0  0  0  0  0
   -0.1437   -0.1544    4.5949 C   0  0  0  0  0  0  0  0  0  0  0  0
    1.0873   -0.0601    3.9421 C   0  0  0  0  0  0  0  0  0  0  0  0
    2.2179   -0.0403    4.6592 F   0  0  0  0  0  0  0  0  0  0  0  0
   -0.2149   -0.2597    6.7010 I   0  0  0  0  0  0  0  0  0  0  0  0
    2.5578   -0.4668    0.9659 H   0  0  0  0  0  0  0  0  0  0  0  0
    3.3185   -0.3698    2.5835 H   0  0  0  0  0  0  0  0  0  0  0  0
    0.8450    2.1106   -0.4578 Au  0  0  0  0  0  0  0  0  0  0  0  0
   -2.1525   -0.0792    1.8450 H   0  0  0  0  0  0  0  0  0  0  0  0
   -2.2838   -0.2398    4.3242 H   0  0  0  0  0  0  0  0  0  0  0  0
  1  2  3  0  0  0  0
  2  3  1  0  0  0  0
  3  4  1  0  0  0  0
  3 14  1  0  0  0  0
  4 10  2  0  0  0  0
  5  7  2  0  0  0  0
  5  4  1  0  0  0  0
  6  5  1  0  0  0  0
  7  8  1  0  0  0  0
  8 17  1  0  0  0  0
  8  9  2  0  0  0  0
  9 12  1  0  0  0  0
 10  9  1  0  0  0  0
 10 11  1  0  0  0  0
 13  3  1  0  0  0  0
 15  6  1  0  0  0  0
 16  7  1  0  0  0  0
M  END
