108154941.xyz
 OpenBabel07262113433D
CCc1ccc(c(c1F)CO)S
 23 23  0  0  0  0  0  0  0  0999 V2000
   -0.0881   -1.1897    6.7621 C   0  0  0  0  0  0  0  0  0  0  0  0
    0.2396    0.1686    6.1258 C   0  0  0  0  0  0  0  0  0  0  0  0
    0.1868    0.1394    4.6192 C   0  0  0  0  0  0  0  0  0  0  0  0
    1.3333    0.0817    3.8193 C   0  0  0  0  0  0  0  0  0  0  0  0
    1.2470    0.0000    2.4291 C   0  0  0  0  0  0  0  0  0  0  0  0
    0.0000    0.0000    1.7849 C   0  0  0  0  0  0  0  0  0  0  0  0
   -1.1841    0.0843    2.5576 C   0  0  0  0  0  0  0  0  0  0  0  0
   -1.0396    0.1230    3.9450 C   0  0  0  0  0  0  0  0  0  0  0  0
   -2.1654    0.1578    4.6986 F   0  0  0  0  0  0  0  0  0  0  0  0
   -2.5682    0.0750    1.9558 C   0  0  0  0  0  0  0  0  0  0  0  0
   -3.0554   -1.2423    1.7056 O   0  0  0  0  0  0  0  0  0  0  0  0
    0.0000    0.0000    0.0000 S   0  0  0  0  0  0  0  0  0  0  0  0
    0.6176   -1.9644    6.4234 H   0  0  0  0  0  0  0  0  0  0  0  0
   -0.0334   -1.1335    7.8607 H   0  0  0  0  0  0  0  0  0  0  0  0
   -1.1039   -1.5136    6.4892 H   0  0  0  0  0  0  0  0  0  0  0  0
    1.2446    0.4937    6.4379 H   0  0  0  0  0  0  0  0  0  0  0  0
   -0.4701    0.9242    6.5005 H   0  0  0  0  0  0  0  0  0  0  0  0
    2.3149    0.0872    4.3005 H   0  0  0  0  0  0  0  0  0  0  0  0
    2.1519   -0.0722    1.8239 H   0  0  0  0  0  0  0  0  0  0  0  0
   -2.5385    0.5772    0.9802 H   0  0  0  0  0  0  0  0  0  0  0  0
   -3.2638    0.6234    2.6116 H   0  0  0  0  0  0  0  0  0  0  0  0
   -3.0230   -1.7326    2.5383 H   0  0  0  0  0  0  0  0  0  0  0  0
   -1.2023   -1.9195   -0.4687 Au  0  0  0  0  0  0  0  0  0  0  0  0
  1 14  1  0  0  0  0
  2 16  1  0  0  0  0
  2 17  1  0  0  0  0
  2  1  1  0  0  0  0
  3  2  1  0  0  0  0
  4 18  1  0  0  0  0
  4  3  2  0  0  0  0
  5  4  1  0  0  0  0
  6  5  2  0  0  0  0
  6  7  1  0  0  0  0
  7  8  2  0  0  0  0
  8  3  1  0  0  0  0
  8  9  1  0  0  0  0
 10  7  1  0  0  0  0
 10 21  1  0  0  0  0
 11 10  1  0  0  0  0
 11 22  1  0  0  0  0
 12  6  1  0  0  0  0
 13  1  1  0  0  0  0
 15  1  1  0  0  0  0
 19  5  1  0  0  0  0
 20 10  1  0  0  0  0
 23 12  1  0  0  0  0
M  END
