108162013.xyz
 OpenBabel07262113433D
CCc1cc(S)cc(c1C)C(F)(F)F
 25 25  0  0  0  0  0  0  0  0999 V2000
    3.0004    1.5439    4.9935 C   0  0  0  0  0  0  0  0  0  0  0  0
    2.5900    0.1264    4.5725 C   0  0  0  0  0  0  0  0  0  0  0  0
    1.2388    0.0781    3.8908 C   0  0  0  0  0  0  0  0  0  0  0  0
    1.2049   -0.0000    2.4928 C   0  0  0  0  0  0  0  0  0  0  0  0
    0.0000   -0.0000    1.7816 C   0  0  0  0  0  0  0  0  0  0  0  0
    0.0000    0.0000    0.0000 S   0  0  0  0  0  0  0  0  0  0  0  0
   -1.2025    0.0878    2.4940 C   0  0  0  0  0  0  0  0  0  0  0  0
   -1.1866    0.1614    3.8861 C   0  0  0  0  0  0  0  0  0  0  0  0
    0.0263    0.1555    4.6151 C   0  0  0  0  0  0  0  0  0  0  0  0
    0.0227    0.2534    6.1217 C   0  0  0  0  0  0  0  0  0  0  0  0
   -2.5144    0.2496    4.6057 C   0  0  0  0  0  0  0  0  0  0  0  0
   -3.5489    0.3367    3.7551 F   0  0  0  0  0  0  0  0  0  0  0  0
   -2.7413   -0.8325    5.3820 F   0  0  0  0  0  0  0  0  0  0  0  0
   -2.5805    1.3267    5.4134 F   0  0  0  0  0  0  0  0  0  0  0  0
    3.9949    1.5430    5.4666 H   0  0  0  0  0  0  0  0  0  0  0  0
    3.0378    2.2141    4.1204 H   0  0  0  0  0  0  0  0  0  0  0  0
    2.2856    1.9754    5.7108 H   0  0  0  0  0  0  0  0  0  0  0  0
    2.6002   -0.5386    5.4510 H   0  0  0  0  0  0  0  0  0  0  0  0
    3.3450   -0.2774    3.8802 H   0  0  0  0  0  0  0  0  0  0  0  0
    2.1420   -0.0647    1.9357 H   0  0  0  0  0  0  0  0  0  0  0  0
   -0.1736   -2.2382   -0.5166 Au  0  0  0  0  0  0  0  0  0  0  0  0
   -2.1480    0.0956    1.9539 H   0  0  0  0  0  0  0  0  0  0  0  0
    0.9755   -0.0733    6.5535 H   0  0  0  0  0  0  0  0  0  0  0  0
   -0.1526    1.2924    6.4434 H   0  0  0  0  0  0  0  0  0  0  0  0
   -0.7755   -0.3561    6.5636 H   0  0  0  0  0  0  0  0  0  0  0  0
  1 15  1  0  0  0  0
  1 17  1  0  0  0  0
  2  1  1  0  0  0  0
  2 18  1  0  0  0  0
  3  2  1  0  0  0  0
  3  9  2  0  0  0  0
  4  3  1  0  0  0  0
  5  4  2  0  0  0  0
  5  7  1  0  0  0  0
  6  5  1  0  0  0  0
  7  8  2  0  0  0  0
  8 11  1  0  0  0  0
  8  9  1  0  0  0  0
  9 10  1  0  0  0  0
 10 24  1  0  0  0  0
 10 23  1  0  0  0  0
 10 25  1  0  0  0  0
 11 13  1  0  0  0  0
 11 14  1  0  0  0  0
 12 11  1  0  0  0  0
 16  1  1  0  0  0  0
 19  2  1  0  0  0  0
 20  4  1  0  0  0  0
 21  6  1  0  0  0  0
 22  7  1  0  0  0  0
M  END
