108158447.xyz
 OpenBabel07262113433D
CCOC(=O)c1c(S)ccc(c1OC(F)(F)F)I
 26 26  0  0  0  0  0  0  0  0999 V2000
    5.1390   -1.7465    1.2953 C   0  0  0  0  0  0  0  0  0  0  0  0
    3.9522   -1.3272    0.4484 C   0  0  0  0  0  0  0  0  0  0  0  0
    2.7533   -1.2013    1.2393 O   0  0  0  0  0  0  0  0  0  0  0  0
    2.5371   -0.0272    1.8399 C   0  0  0  0  0  0  0  0  0  0  0  0
    3.2979    0.9048    1.8334 O   0  0  0  0  0  0  0  0  0  0  0  0
    1.1972   -0.0000    2.5321 C   0  0  0  0  0  0  0  0  0  0  0  0
   -0.0000   -0.0000    1.7838 C   0  0  0  0  0  0  0  0  0  0  0  0
    0.0000    0.0000    0.0000 S   0  0  0  0  0  0  0  0  0  0  0  0
   -1.2268    0.1390    2.4516 C   0  0  0  0  0  0  0  0  0  0  0  0
   -1.2768    0.2971    3.8336 C   0  0  0  0  0  0  0  0  0  0  0  0
   -0.0946    0.3003    4.5794 C   0  0  0  0  0  0  0  0  0  0  0  0
    1.1360    0.1370    3.9259 C   0  0  0  0  0  0  0  0  0  0  0  0
    2.3081    0.1918    4.6652 O   0  0  0  0  0  0  0  0  0  0  0  0
    2.9093   -0.9610    5.0534 C   0  0  0  0  0  0  0  0  0  0  0  0
    3.8607   -0.6499    5.9166 F   0  0  0  0  0  0  0  0  0  0  0  0
    3.4690   -1.6098    4.0179 F   0  0  0  0  0  0  0  0  0  0  0  0
    2.0538   -1.8145    5.6256 F   0  0  0  0  0  0  0  0  0  0  0  0
   -0.1870    0.6101    6.6673 I   0  0  0  0  0  0  0  0  0  0  0  0
    6.0159   -1.9102    0.6492 H   0  0  0  0  0  0  0  0  0  0  0  0
    4.9251   -2.6801    1.8368 H   0  0  0  0  0  0  0  0  0  0  0  0
    5.3889   -0.9662    2.0276 H   0  0  0  0  0  0  0  0  0  0  0  0
    3.7010   -2.0869   -0.3058 H   0  0  0  0  0  0  0  0  0  0  0  0
    4.1397   -0.3689   -0.0567 H   0  0  0  0  0  0  0  0  0  0  0  0
    0.2519   -2.2415   -0.4890 Au  0  0  0  0  0  0  0  0  0  0  0  0
   -2.1472    0.1407    1.8657 H   0  0  0  0  0  0  0  0  0  0  0  0
   -2.2365    0.4243    4.3361 H   0  0  0  0  0  0  0  0  0  0  0  0
  1 20  1  0  0  0  0
  1 21  1  0  0  0  0
  2  3  1  0  0  0  0
  2  1  1  0  0  0  0
  3  4  1  0  0  0  0
  4  6  1  0  0  0  0
  5  4  2  0  0  0  0
  6 12  2  0  0  0  0
  7  9  2  0  0  0  0
  7  6  1  0  0  0  0
  8  7  1  0  0  0  0
  9 10  1  0  0  0  0
 10 26  1  0  0  0  0
 10 11  2  0  0  0  0
 11 18  1  0  0  0  0
 12 11  1  0  0  0  0
 12 13  1  0  0  0  0
 13 14  1  0  0  0  0
 14 17  1  0  0  0  0
 14 15  1  0  0  0  0
 16 14  1  0  0  0  0
 19  1  1  0  0  0  0
 22  2  1  0  0  0  0
 23  2  1  0  0  0  0
 24  8  1  0  0  0  0
 25  9  1  0  0  0  0
M  END
