110-66-7.xyz
 OpenBabel08132117233D
[CH3][CH2][CH2][CH2][CH2]S
 18 17  0  0  0  0  0  0  0  0999 V2000
    0.0000    0.0000    0.0000 S   0  0  0  0  0  0  0  0  0  0  0  0
    1.5684    0.0000    3.8464 C   0  0  0  0  0  0  0  0  0  0  0  0
    1.4530    0.0000    2.3197 C   0  0  0  0  0  0  0  0  0  0  0  0
    3.0151    0.0000    4.3439 C   0  0  0  0  0  0  0  0  0  0  0  0
    0.0000    0.0000    1.8438 C   0  0  0  0  0  0  0  0  0  0  0  0
    3.1289    0.0000    5.8673 C   0  0  0  0  0  0  0  0  0  0  0  0
    1.0412   -0.8821    4.2538 H   0  0  0  0  0  0  0  0  0  0  0  0
    1.0412    0.8821    4.2538 H   0  0  0  0  0  0  0  0  0  0  0  0
    1.9718    0.8835    1.9083 H   0  0  0  0  0  0  0  0  0  0  0  0
    1.9718   -0.8835    1.9083 H   0  0  0  0  0  0  0  0  0  0  0  0
    3.5390   -0.8810    3.9316 H   0  0  0  0  0  0  0  0  0  0  0  0
    3.5390    0.8810    3.9316 H   0  0  0  0  0  0  0  0  0  0  0  0
   -0.5260   -0.8916    2.2151 H   0  0  0  0  0  0  0  0  0  0  0  0
   -0.5260    0.8916    2.2151 H   0  0  0  0  0  0  0  0  0  0  0  0
    4.1802    0.0000    6.1955 H   0  0  0  0  0  0  0  0  0  0  0  0
    2.6428   -0.8884    6.3039 H   0  0  0  0  0  0  0  0  0  0  0  0
    2.6428    0.8884    6.3039 H   0  0  0  0  0  0  0  0  0  0  0  0
   -2.2240    0.0000   -0.5428 Au  0  0  0  0  0  0  0  0  0  0  0  0
  1  5  1  0  0  0  0
  2  7  1  0  0  0  0
  2  8  1  0  0  0  0
  2  4  1  0  0  0  0
  3  2  1  0  0  0  0
  4  6  1  0  0  0  0
  5 13  1  0  0  0  0
  5 14  1  0  0  0  0
  5  3  1  0  0  0  0
  6 15  1  0  0  0  0
  6 16  1  0  0  0  0
  6 17  1  0  0  0  0
  9  3  1  0  0  0  0
 10  3  1  0  0  0  0
 11  4  1  0  0  0  0
 12  4  1  0  0  0  0
 18  1  1  0  0  0  0
M  END
