114515776.xyz
 OpenBabel07262113433D
Sc1ncnc(c1)c1cccnc1
 20 21  0  0  1  0  0  0  0  0999 V2000
    0.0000    0.0000    0.0000 S   0  0  0  0  0  0  0  0  0  0  0  0
    0.0000   -0.0000    1.7625 C   0  0  0  0  0  0  0  0  0  0  0  0
    1.1506    0.0000    2.4488 N   0  0  0  0  0  0  0  0  0  0  0  0
    1.0524    0.0004    3.7799 C   0  0  0  0  0  0  0  0  0  0  0  0
   -0.0619    0.0000    4.4968 N   0  0  0  0  0  0  0  0  0  0  0  0
   -1.2302   -0.0006    3.8231 C   0  0  0  0  0  0  0  0  0  0  0  0
   -1.2416    0.0001    2.4247 C   0  0  0  0  0  0  0  0  0  0  0  0
   -2.4737   -0.0019    4.6328 C   0  0  1  0  0  0  0  0  0  0  0  0
   -3.7577   -0.0156    4.0670 C   0  0  0  0  0  0  0  0  0  0  0  0
   -4.8704   -0.0161    4.9043 C   0  0  0  0  0  0  0  0  0  0  0  0
   -4.6652   -0.0029    6.2874 C   0  0  0  0  0  0  0  0  0  0  0  0
   -3.4524    0.0101    6.8455 N   0  0  0  0  0  0  0  0  0  0  0  0
   -2.3915    0.0104    6.0394 C   0  0  0  0  0  0  0  0  0  0  0  0
    2.2823   -0.0062   -0.3771 Au  0  0  0  0  0  0  0  0  0  0  0  0
    1.9986    0.0010    4.3342 H   0  0  0  0  0  0  0  0  0  0  0  0
   -2.1681    0.0010    1.8526 H   0  0  0  0  0  0  0  0  0  0  0  0
   -3.8969   -0.0268    2.9847 H   0  0  0  0  0  0  0  0  0  0  0  0
   -5.8824   -0.0270    4.4944 H   0  0  0  0  0  0  0  0  0  0  0  0
   -5.5212   -0.0031    6.9725 H   0  0  0  0  0  0  0  0  0  0  0  0
   -1.4023    0.0208    6.5040 H   0  0  0  0  0  0  0  0  0  0  0  0
  1  2  1  0  0  0  0
  2  7  1  0  0  0  0
  2  3  2  0  0  0  0
  3  4  2  0  0  0  0
  4 15  1  0  0  0  0
  4  5  2  0  0  0  0
  6  5  2  0  0  0  0
  7  6  1  0  0  0  0
  8  6  1  1  0  0  0
  8 13  1  0  0  0  0
  9  8  1  0  0  0  0
  9 10  2  0  0  0  0
 10 11  1  0  0  0  0
 11 12  2  0  0  0  0
 11 19  1  0  0  0  0
 13 20  1  0  0  0  0
 13 12  2  0  0  0  0
 14  1  1  0  0  0  0
 16  7  1  0  0  0  0
 17  9  1  0  0  0  0
 18 10  1  0  0  0  0
M  RAD  2   7   2   8   2
M  END
