114661445.xyz
 OpenBabel07262113433D
CC=CCn1c(S)nc2c1cccc2
 26 27  0  0  0  0  0  0  0  0999 V2000
   -3.3502    1.1491   -0.9698 C   0  0  0  0  0  0  0  0  0  0  0  0
   -3.2881    1.9092    0.3203 C   0  0  0  0  0  0  0  0  0  0  0  0
   -2.9519    1.4535    1.5345 C   0  0  0  0  0  0  0  0  0  0  0  0
   -2.5369    0.0502    1.8850 C   0  0  0  0  0  0  0  0  0  0  0  0
   -1.1968   -0.0026    2.4552 N   0  0  0  0  0  0  0  0  0  0  0  0
   -0.0000    0.0000    1.7609 C   0  0  0  0  0  0  0  0  0  0  0  0
    0.0000    0.0000    0.0000 S   0  0  0  0  0  0  0  0  0  0  0  0
    1.0543    0.0000    2.5479 N   0  0  0  0  0  0  0  0  0  0  0  0
    0.5536    0.0160    3.8388 C   0  0  0  0  0  0  0  0  0  0  0  0
   -0.8667    0.0289    3.8043 C   0  0  0  0  0  0  0  0  0  0  0  0
   -1.6441    0.0611    4.9640 C   0  0  0  0  0  0  0  0  0  0  0  0
   -0.9609    0.0683    6.1826 C   0  0  0  0  0  0  0  0  0  0  0  0
    0.4474    0.0479    6.2347 C   0  0  0  0  0  0  0  0  0  0  0  0
    1.2184    0.0216    5.0724 C   0  0  0  0  0  0  0  0  0  0  0  0
   -2.6810    1.6097   -1.7159 H   0  0  0  0  0  0  0  0  0  0  0  0
   -3.0588    0.0949   -0.8698 H   0  0  0  0  0  0  0  0  0  0  0  0
   -4.3686    1.1849   -1.3940 H   0  0  0  0  0  0  0  0  0  0  0  0
   -3.5499    2.9719    0.2469 H   0  0  0  0  0  0  0  0  0  0  0  0
   -2.9444    2.1557    2.3754 H   0  0  0  0  0  0  0  0  0  0  0  0
   -3.2189   -0.3809    2.6353 H   0  0  0  0  0  0  0  0  0  0  0  0
   -2.5621   -0.6145    1.0103 H   0  0  0  0  0  0  0  0  0  0  0  0
    2.2709   -0.3662   -0.2535 Au  0  0  0  0  0  0  0  0  0  0  0  0
   -2.7352    0.0836    4.9290 H   0  0  0  0  0  0  0  0  0  0  0  0
   -1.5311    0.0928    7.1141 H   0  0  0  0  0  0  0  0  0  0  0  0
    0.9428    0.0557    7.2084 H   0  0  0  0  0  0  0  0  0  0  0  0
    2.3093    0.0087    5.1076 H   0  0  0  0  0  0  0  0  0  0  0  0
  1 16  1  0  0  0  0
  1  2  1  0  0  0  0
  2  3  2  0  0  0  0
  3  4  1  0  0  0  0
  3 19  1  0  0  0  0
  4  5  1  0  0  0  0
  4 20  1  0  0  0  0
  5 10  1  0  0  0  0
  6  5  1  0  0  0  0
  6  8  2  0  0  0  0
  7  6  1  0  0  0  0
  8  9  2  0  0  0  0
  9 14  1  0  0  0  0
 10  9  1  0  0  0  0
 10 11  2  0  0  0  0
 11 12  1  0  0  0  0
 12 13  1  0  0  0  0
 12 24  1  0  0  0  0
 13 25  1  0  0  0  0
 14 26  1  0  0  0  0
 14 13  2  0  0  0  0
 15  1  1  0  0  0  0
 17  1  1  0  0  0  0
 18  2  1  0  0  0  0
 21  4  1  0  0  0  0
 22  7  1  0  0  0  0
 23 11  1  0  0  0  0
M  RAD  1  12   2
M  END
