114668551.xyz
 OpenBabel07262113433D
Oc1nc(S)nc(c1)c1nccnc1
 20 21  0  0  0  0  0  0  0  0999 V2000
   -2.2396   -0.0002    4.4262 O   0  0  0  0  0  0  0  0  0  0  0  0
   -1.0671   -0.0001    3.7741 C   0  0  0  0  0  0  0  0  0  0  0  0
   -1.1529   -0.0000    2.4502 N   0  0  0  0  0  0  0  0  0  0  0  0
    0.0000   -0.0000    1.7711 C   0  0  0  0  0  0  0  0  0  0  0  0
    0.0000    0.0000    0.0000 S   0  0  0  0  0  0  0  0  0  0  0  0
    1.2231   -0.0000    2.2995 N   0  0  0  0  0  0  0  0  0  0  0  0
    1.3047   -0.0002    3.6376 C   0  0  0  0  0  0  0  0  0  0  0  0
    0.1677   -0.0003    4.4458 C   0  0  0  0  0  0  0  0  0  0  0  0
    2.6631   -0.0004    4.2382 C   0  0  0  0  0  0  0  0  0  0  0  0
    2.7606   -0.0011    5.5739 N   0  0  0  0  0  0  0  0  0  0  0  0
    3.9848   -0.0014    6.0940 C   0  0  0  0  0  0  0  0  0  0  0  0
    5.1263   -0.0010    5.2822 C   0  0  0  0  0  0  0  0  0  0  0  0
    5.0392   -0.0002    3.9511 N   0  0  0  0  0  0  0  0  0  0  0  0
    3.8134    0.0000    3.4277 C   0  0  0  0  0  0  0  0  0  0  0  0
   -2.0758   -0.0003    5.3795 H   0  0  0  0  0  0  0  0  0  0  0  0
   -2.2625   -0.0012   -0.4361 Au  0  0  0  0  0  0  0  0  0  0  0  0
    0.2651   -0.0005    5.5314 H   0  0  0  0  0  0  0  0  0  0  0  0
    4.0722   -0.0020    7.1861 H   0  0  0  0  0  0  0  0  0  0  0  0
    6.1282   -0.0013    5.7256 H   0  0  0  0  0  0  0  0  0  0  0  0
    3.7075    0.0006    2.3403 H   0  0  0  0  0  0  0  0  0  0  0  0
  1 15  1  0  0  0  0
  2  1  1  0  0  0  0
  2  8  1  0  0  0  0
  3  2  2  0  0  0  0
  4  6  2  0  0  0  0
  4  3  2  0  0  0  0
  5  4  1  0  0  0  0
  6  7  2  0  0  0  0
  7  9  1  0  0  0  0
  7  8  1  0  0  0  0
  8 17  1  0  0  0  0
  9 10  2  0  0  0  0
 10 11  2  0  0  0  0
 11 18  1  0  0  0  0
 12 19  1  0  0  0  0
 12 11  1  0  0  0  0
 13 12  2  0  0  0  0
 14 13  2  0  0  0  0
 14  9  1  0  0  0  0
 16  5  1  0  0  0  0
 20 14  1  0  0  0  0
M  RAD  1   8   2
M  END
