114684720.xyz
 OpenBabel07262113433D
COc1ccc2c(c1)n(CC)c(n2)S
 26 27  0  0  1  0  0  0  0  0999 V2000
   -1.2080   -0.1397    8.5621 C   0  0  0  0  0  0  0  0  0  0  0  0
   -1.7958   -0.1251    7.2846 O   0  0  0  0  0  0  0  0  0  0  0  0
   -0.9931   -0.0885    6.1843 C   0  0  0  0  0  0  0  0  0  0  0  0
    0.4188   -0.0635    6.2457 C   0  0  0  0  0  0  0  0  0  0  0  0
    1.1907   -0.0304    5.0808 C   0  0  0  0  0  0  0  0  0  0  0  0
    0.5447   -0.0229    3.8425 C   0  0  0  0  0  0  0  0  0  0  0  0
   -0.8752   -0.0421    3.8035 C   0  0  1  0  0  0  0  0  0  0  0  0
   -1.6625   -0.0795    4.9510 C   0  0  0  0  0  0  0  0  0  0  0  0
   -1.2026   -0.0084    2.4551 N   0  0  0  0  0  0  0  0  0  0  0  0
   -2.5403   -0.0767    1.8928 C   0  0  0  0  0  0  0  0  0  0  0  0
   -3.0209   -1.5089    1.6727 C   0  0  0  0  0  0  0  0  0  0  0  0
   -0.0000   -0.0000    1.7631 C   0  0  0  0  0  0  0  0  0  0  0  0
    1.0506   -0.0000    2.5502 N   0  0  0  0  0  0  0  0  0  0  0  0
    0.0000    0.0000    0.0000 S   0  0  0  0  0  0  0  0  0  0  0  0
   -2.0328   -0.1694    9.2870 H   0  0  0  0  0  0  0  0  0  0  0  0
   -0.5682   -1.0284    8.7131 H   0  0  0  0  0  0  0  0  0  0  0  0
   -0.6015    0.7654    8.7490 H   0  0  0  0  0  0  0  0  0  0  0  0
    0.9237   -0.0721    7.2108 H   0  0  0  0  0  0  0  0  0  0  0  0
    2.2808   -0.0130    5.1336 H   0  0  0  0  0  0  0  0  0  0  0  0
   -2.7524   -0.1047    4.9343 H   0  0  0  0  0  0  0  0  0  0  0  0
   -2.5331    0.4827    0.9443 H   0  0  0  0  0  0  0  0  0  0  0  0
   -3.2138    0.4640    2.5760 H   0  0  0  0  0  0  0  0  0  0  0  0
   -4.0408   -1.5130    1.2576 H   0  0  0  0  0  0  0  0  0  0  0  0
   -2.3584   -2.0329    0.9670 H   0  0  0  0  0  0  0  0  0  0  0  0
   -3.0297   -2.0691    2.6203 H   0  0  0  0  0  0  0  0  0  0  0  0
    2.2901    0.2289   -0.2457 Au  0  0  0  0  0  0  0  0  0  0  0  0
  1 16  1  0  0  0  0
  1 17  1  0  0  0  0
  1 15  1  0  0  0  0
  2  1  1  0  0  0  0
  3  4  1  0  0  0  0
  3  2  1  0  0  0  0
  4 18  1  0  0  0  0
  5 19  1  0  0  0  0
  5  4  2  0  0  0  0
  6  5  1  0  0  0  0
  7  6  1  1  0  0  0
  7  8  1  0  0  0  0
  8  3  2  0  0  0  0
  9  7  1  0  0  0  0
 10  9  1  0  0  0  0
 10 22  1  0  0  0  0
 11 10  1  0  0  0  0
 11 25  1  0  0  0  0
 12  9  1  0  0  0  0
 12 13  2  0  0  0  0
 13  6  2  0  0  0  0
 14 12  1  0  0  0  0
 20  8  1  0  0  0  0
 21 10  1  0  0  0  0
 23 11  1  0  0  0  0
 24 11  1  0  0  0  0
 26 14  1  0  0  0  0
M  RAD  1   7   2
M  END
