114681907.xyz
 OpenBabel07262113433D
O=c1nc(S)[nH]c(c1)c1ccnn1C
 22 23  0  0  0  0  0  0  0  0999 V2000
   -2.4015   -0.1292    4.2494 O   0  0  0  0  0  0  0  0  0  0  0  0
   -1.3107   -0.0652    3.7215 C   0  0  0  0  0  0  0  0  0  0  0  0
   -1.1648   -0.0198    2.3150 N   0  0  0  0  0  0  0  0  0  0  0  0
   -0.0000    0.0000    1.7809 C   0  0  0  0  0  0  0  0  0  0  0  0
    0.0000    0.0000    0.0000 S   0  0  0  0  0  0  0  0  0  0  0  0
    1.1772   -0.0000    2.4807 N   0  0  0  0  0  0  0  0  0  0  0  0
    1.1553    0.0050    3.8682 C   0  0  0  0  0  0  0  0  0  0  0  0
   -0.0547   -0.0103    4.4906 C   0  0  0  0  0  0  0  0  0  0  0  0
    2.4710    0.0684    4.5008 C   0  0  0  0  0  0  0  0  0  0  0  0
    3.6293    0.6959    4.0387 C   0  0  0  0  0  0  0  0  0  0  0  0
    4.5932    0.4422    5.0355 C   0  0  0  0  0  0  0  0  0  0  0  0
    4.0838   -0.2881    6.0247 N   0  0  0  0  0  0  0  0  0  0  0  0
    2.8048   -0.5115    5.6970 N   0  0  0  0  0  0  0  0  0  0  0  0
    1.9837   -1.3147    6.5838 C   0  0  0  0  0  0  0  0  0  0  0  0
    2.1854    0.2688   -0.6728 Au  0  0  0  0  0  0  0  0  0  0  0  0
    2.0604   -0.0806    1.9909 H   0  0  0  0  0  0  0  0  0  0  0  0
   -0.1409    0.0448    5.5731 H   0  0  0  0  0  0  0  0  0  0  0  0
    3.7368    1.2885    3.1331 H   0  0  0  0  0  0  0  0  0  0  0  0
    5.6338    0.7615    5.0734 H   0  0  0  0  0  0  0  0  0  0  0  0
    1.3905   -0.6818    7.2620 H   0  0  0  0  0  0  0  0  0  0  0  0
    1.3040   -1.9485    5.9998 H   0  0  0  0  0  0  0  0  0  0  0  0
    2.6621   -1.9381    7.1776 H   0  0  0  0  0  0  0  0  0  0  0  0
  2  1  2  0  0  0  0
  2  8  1  0  0  0  0
  3  2  2  0  0  0  0
  4  3  2  0  0  0  0
  4  6  1  0  0  0  0
  5  4  1  0  0  0  0
  6  7  1  0  0  0  0
  7  8  2  0  0  0  0
  7  9  1  0  0  0  0
  8 17  1  0  0  0  0
  9 13  1  0  0  0  0
 10  9  2  0  0  0  0
 10 11  1  0  0  0  0
 11 19  1  0  0  0  0
 11 12  2  0  0  0  0
 13 12  1  0  0  0  0
 13 14  1  0  0  0  0
 14 22  1  0  0  0  0
 14 20  1  0  0  0  0
 15  5  1  0  0  0  0
 16  6  1  0  0  0  0
 18 10  1  0  0  0  0
 21 14  1  0  0  0  0
M  END
