114678230.xyz
 OpenBabel07262113433D
CC(n1c(S)nc2c1cncc2)CC
 27 28  0  0  1  0  0  0  0  0999 V2000
    2.9006    1.2675    1.2744 C   0  0  0  0  0  0  0  0  0  0  0  0
    2.5653   -0.0053    2.0534 C   0  0  1  0  0  0  0  0  0  0  0  0
    1.1665   -0.0000    2.5060 N   0  0  0  0  0  0  0  0  0  0  0  0
    0.0000   -0.0000    1.7613 C   0  0  0  0  0  0  0  0  0  0  0  0
    0.0000    0.0000    0.0000 S   0  0  0  0  0  0  0  0  0  0  0  0
   -1.0920   -0.0016    2.5072 N   0  0  0  0  0  0  0  0  0  0  0  0
   -0.6507   -0.0048    3.8119 C   0  0  0  0  0  0  0  0  0  0  0  0
    0.7665   -0.0052    3.8394 C   0  0  2  0  0  0  0  0  0  0  0  0
    1.4527   -0.0095    5.0568 C   0  0  0  0  0  0  0  0  0  0  0  0
    0.7837   -0.0126    6.2080 N   0  0  0  0  0  0  0  0  0  0  0  0
   -0.5618   -0.0116    6.1894 C   0  0  0  0  0  0  0  0  0  0  0  0
   -1.3398   -0.0078    5.0311 C   0  0  0  0  0  0  0  0  0  0  0  0
    2.8967   -1.3160    1.3229 C   0  0  0  0  0  0  0  0  0  0  0  0
    4.3801   -1.4797    0.9986 C   0  0  0  0  0  0  0  0  0  0  0  0
    3.9796    1.3184    1.0698 H   0  0  0  0  0  0  0  0  0  0  0  0
    2.6202    2.1569    1.8579 H   0  0  0  0  0  0  0  0  0  0  0  0
    2.3655    1.3046    0.3137 H   0  0  0  0  0  0  0  0  0  0  0  0
    3.1538    0.0085    2.9832 H   0  0  0  0  0  0  0  0  0  0  0  0
   -2.3072    0.0168   -0.2417 Au  0  0  0  0  0  0  0  0  0  0  0  0
    2.5477   -0.0107    5.1100 H   0  0  0  0  0  0  0  0  0  0  0  0
   -1.0520   -0.0142    7.1693 H   0  0  0  0  0  0  0  0  0  0  0  0
   -2.4302   -0.0075    5.0708 H   0  0  0  0  0  0  0  0  0  0  0  0
    2.5601   -2.1470    1.9645 H   0  0  0  0  0  0  0  0  0  0  0  0
    2.2985   -1.3782    0.3988 H   0  0  0  0  0  0  0  0  0  0  0  0
    4.5756   -2.4727    0.5663 H   0  0  0  0  0  0  0  0  0  0  0  0
    5.0034   -1.3826    1.9034 H   0  0  0  0  0  0  0  0  0  0  0  0
    4.7286   -0.7310    0.2706 H   0  0  0  0  0  0  0  0  0  0  0  0
  1 16  1  0  0  0  0
  1  2  1  0  0  0  0
  2  3  1  0  0  0  0
  2 18  1  1  0  0  0
  3  8  1  0  0  0  0
  4  3  1  0  0  0  0
  4  6  2  0  0  0  0
  5  4  1  0  0  0  0
  6  7  2  0  0  0  0
  7 12  1  0  0  0  0
  8  7  1  1  0  0  0
  8  9  1  0  0  0  0
  9 20  1  0  0  0  0
  9 10  2  0  0  0  0
 11 10  2  0  0  0  0
 11 21  1  0  0  0  0
 12 22  1  0  0  0  0
 12 11  1  0  0  0  0
 13 23  1  0  0  0  0
 13  2  1  0  0  0  0
 14 13  1  0  0  0  0
 14 26  1  0  0  0  0
 15  1  1  0  0  0  0
 17  1  1  0  0  0  0
 19  5  1  0  0  0  0
 24 13  1  0  0  0  0
 25 14  1  0  0  0  0
 27 14  1  0  0  0  0
M  RAD  2   8   2  12   2
M  END
