114690585.xyz
 OpenBabel07262113433D
CC(n1c(S)nnc1c1c[nH]cn1)C
 25 26  0  0  0  0  0  0  0  0999 V2000
   -2.9675   -1.1883    1.3972 C   0  0  0  0  0  0  0  0  0  0  0  0
   -2.5320    0.0690    2.1508 C   0  0  0  0  0  0  0  0  0  0  0  0
   -1.1208   -0.0205    2.5551 N   0  0  0  0  0  0  0  0  0  0  0  0
    0.0000   -0.0000    1.7606 C   0  0  0  0  0  0  0  0  0  0  0  0
    0.0000    0.0000    0.0000 S   0  0  0  0  0  0  0  0  0  0  0  0
    1.0836   -0.0000    2.5200 N   0  0  0  0  0  0  0  0  0  0  0  0
    0.6933   -0.0243    3.8227 N   0  0  0  0  0  0  0  0  0  0  0  0
   -0.6193   -0.0370    3.8533 C   0  0  0  0  0  0  0  0  0  0  0  0
   -1.4407   -0.0917    5.0643 C   0  0  0  0  0  0  0  0  0  0  0  0
   -2.4773   -0.9647    5.3559 C   0  0  0  0  0  0  0  0  0  0  0  0
   -2.8859   -0.6315    6.6257 N   0  0  0  0  0  0  0  0  0  0  0  0
   -2.0968    0.4044    7.0485 C   0  0  0  0  0  0  0  0  0  0  0  0
   -1.2244    0.7510    6.1338 N   0  0  0  0  0  0  0  0  0  0  0  0
   -2.8098    1.3652    1.3883 C   0  0  0  0  0  0  0  0  0  0  0  0
   -2.7841   -2.0899    2.0018 H   0  0  0  0  0  0  0  0  0  0  0  0
   -4.0422   -1.1365    1.1648 H   0  0  0  0  0  0  0  0  0  0  0  0
   -2.4152   -1.2973    0.4514 H   0  0  0  0  0  0  0  0  0  0  0  0
   -3.0856    0.1138    3.0985 H   0  0  0  0  0  0  0  0  0  0  0  0
    2.3234   -0.0020   -0.1645 Au  0  0  0  0  0  0  0  0  0  0  0  0
   -2.9177   -1.7859    4.7972 H   0  0  0  0  0  0  0  0  0  0  0  0
   -3.6259   -1.0811    7.1510 H   0  0  0  0  0  0  0  0  0  0  0  0
   -2.2137    0.8631    8.0302 H   0  0  0  0  0  0  0  0  0  0  0  0
   -2.2710    1.3950    0.4296 H   0  0  0  0  0  0  0  0  0  0  0  0
   -2.4997    2.2366    1.9839 H   0  0  0  0  0  0  0  0  0  0  0  0
   -3.8875    1.4505    1.1807 H   0  0  0  0  0  0  0  0  0  0  0  0
  1 15  1  0  0  0  0
  1  2  1  0  0  0  0
  2  3  1  0  0  0  0
  2 18  1  0  0  0  0
  3  8  1  0  0  0  0
  4  6  2  0  0  0  0
  4  3  1  0  0  0  0
  5  4  1  0  0  0  0
  6  7  1  0  0  0  0
  7  8  2  0  0  0  0
  8  9  1  0  0  0  0
  9 10  1  0  0  0  0
  9 13  2  0  0  0  0
 10 11  1  0  0  0  0
 11 12  1  0  0  0  0
 11 21  1  0  0  0  0
 12 22  1  0  0  0  0
 13 12  2  0  0  0  0
 14 24  1  0  0  0  0
 14  2  1  0  0  0  0
 16  1  1  0  0  0  0
 17  1  1  0  0  0  0
 19  5  1  0  0  0  0
 20 10  1  0  0  0  0
 23 14  1  0  0  0  0
 25 14  1  0  0  0  0
M  RAD  1  10   2
M  END
