114710740.xyz
 OpenBabel07262113433D
Sc1nc2c(o1)CC(CC2)C(C)(C)C
 31 32  0  0  1  0  0  0  0  0999 V2000
    0.0000    0.0000    0.0000 S   0  0  0  0  0  0  0  0  0  0  0  0
   -0.0000   -0.0000    1.7358 C   0  0  0  0  0  0  0  0  0  0  0  0
   -1.0225    0.0515    2.5497 N   0  0  0  0  0  0  0  0  0  0  0  0
   -0.4793    0.0923    3.8135 C   0  0  0  0  0  0  0  0  0  0  0  0
    0.8856    0.0518    3.7152 C   0  0  1  0  0  0  0  0  0  0  0  0
    1.2084   -0.0000    2.3987 O   0  0  0  0  0  0  0  0  0  0  0  0
    1.8823    0.0830    4.8131 C   0  0  0  0  0  0  0  0  0  0  0  0
    1.1624    0.5013    6.1211 C   0  0  1  0  0  0  0  0  0  0  0  0
   -0.1932   -0.2330    6.2397 C   0  0  0  0  0  0  0  0  0  0  0  0
   -1.1854    0.1536    5.1273 C   0  0  0  0  0  0  0  0  0  0  0  0
    2.0644    0.3723    7.3901 C   0  0  0  0  0  0  0  0  0  0  0  0
    3.4336    1.0268    7.1294 C   0  0  0  0  0  0  0  0  0  0  0  0
    1.4042    1.1192    8.5638 C   0  0  0  0  0  0  0  0  0  0  0  0
    2.2814   -1.0975    7.7898 C   0  0  0  0  0  0  0  0  0  0  0  0
    0.4764   -2.2124   -0.4903 Au  0  0  0  0  0  0  0  0  0  0  0  0
    2.3563   -0.9092    4.9262 H   0  0  0  0  0  0  0  0  0  0  0  0
    2.6913    0.7861    4.5633 H   0  0  0  0  0  0  0  0  0  0  0  0
    0.9360    1.5788    6.0167 H   0  0  0  0  0  0  0  0  0  0  0  0
   -0.6501   -0.0320    7.2185 H   0  0  0  0  0  0  0  0  0  0  0  0
   -0.0173   -1.3210    6.1915 H   0  0  0  0  0  0  0  0  0  0  0  0
   -2.0571   -0.5200    5.1266 H   0  0  0  0  0  0  0  0  0  0  0  0
   -1.5805    1.1714    5.2987 H   0  0  0  0  0  0  0  0  0  0  0  0
    3.3196    2.0603    6.7631 H   0  0  0  0  0  0  0  0  0  0  0  0
    4.0214    1.0655    8.0600 H   0  0  0  0  0  0  0  0  0  0  0  0
    4.0286    0.4681    6.3917 H   0  0  0  0  0  0  0  0  0  0  0  0
    2.0440    1.0699    9.4590 H   0  0  0  0  0  0  0  0  0  0  0  0
    1.2502    2.1828    8.3196 H   0  0  0  0  0  0  0  0  0  0  0  0
    0.4286    0.6901    8.8359 H   0  0  0  0  0  0  0  0  0  0  0  0
    2.9758   -1.1615    8.6426 H   0  0  0  0  0  0  0  0  0  0  0  0
    1.3420   -1.5833    8.0930 H   0  0  0  0  0  0  0  0  0  0  0  0
    2.7175   -1.6868    6.9676 H   0  0  0  0  0  0  0  0  0  0  0  0
  1  2  1  0  0  0  0
  2  6  1  0  0  0  0
  2  3  2  0  0  0  0
  3  4  2  0  0  0  0
  4 10  1  0  0  0  0
  5  6  1  6  0  0  0
  5  4  1  0  0  0  0
  5  7  1  0  0  0  0
  7 16  1  0  0  0  0
  7  8  1  0  0  0  0
  8 18  1  6  0  0  0
  8  9  1  0  0  0  0
  8 11  1  0  0  0  0
  9 19  1  0  0  0  0
 10 22  1  0  0  0  0
 10  9  1  0  0  0  0
 11 14  1  0  0  0  0
 11 13  1  0  0  0  0
 12 11  1  0  0  0  0
 12 24  1  0  0  0  0
 13 28  1  0  0  0  0
 13 26  1  0  0  0  0
 14 30  1  0  0  0  0
 14 29  1  0  0  0  0
 15  1  1  0  0  0  0
 17  7  1  0  0  0  0
 20  9  1  0  0  0  0
 21 10  1  0  0  0  0
 23 12  1  0  0  0  0
 25 12  1  0  0  0  0
 27 13  1  0  0  0  0
 31 14  1  0  0  0  0
M  RAD  1   5   2
M  END
