114762013.xyz
 OpenBabel07262113433D
SC1=NC(=O)/C(=C\c2cnn(c2)C)/S1
 21 22  0  0  0  0  0  0  0  0999 V2000
    0.0000    0.0000    0.0000 S   0  0  0  0  0  0  0  0  0  0  0  0
    0.0000   -0.0000    1.7418 C   0  0  0  0  0  0  0  0  0  0  0  0
   -1.0403   -0.0000    2.5055 N   0  0  0  0  0  0  0  0  0  0  0  0
   -0.7244   -0.0004    3.8747 C   0  0  0  0  0  0  0  0  0  0  0  0
   -1.5659   -0.0008    4.7492 O   0  0  0  0  0  0  0  0  0  0  0  0
    0.7607   -0.0001    4.1041 C   0  0  0  0  0  0  0  0  0  0  0  0
    1.4637    0.0003    5.2683 C   0  0  0  0  0  0  0  0  0  0  0  0
    1.0556    0.0002    6.6503 C   0  0  0  0  0  0  0  0  0  0  0  0
   -0.2133   -0.0007    7.3181 C   0  0  0  0  0  0  0  0  0  0  0  0
   -0.0658   -0.0003    8.6331 N   0  0  0  0  0  0  0  0  0  0  0  0
    1.2670    0.0009    8.8548 N   0  0  0  0  0  0  0  0  0  0  0  0
    1.9769    0.0012    7.7086 C   0  0  0  0  0  0  0  0  0  0  0  0
    1.7601    0.0010   10.2148 C   0  0  0  0  0  0  0  0  0  0  0  0
    1.5930   -0.0000    2.5318 S   0  0  0  0  0  0  0  0  0  0  0  0
   -2.3024    0.0035   -0.2900 Au  0  0  0  0  0  0  0  0  0  0  0  0
    2.5539    0.0007    5.1513 H   0  0  0  0  0  0  0  0  0  0  0  0
   -1.1937   -0.0015    6.8522 H   0  0  0  0  0  0  0  0  0  0  0  0
    3.0653    0.0021    7.7002 H   0  0  0  0  0  0  0  0  0  0  0  0
    2.8577    0.0049   10.2021 H   0  0  0  0  0  0  0  0  0  0  0  0
    1.3969    0.8928   10.7464 H   0  0  0  0  0  0  0  0  0  0  0  0
    1.4033   -0.8946   10.7446 H   0  0  0  0  0  0  0  0  0  0  0  0
  1  2  1  0  0  0  0
  2  3  2  0  0  0  0
  2 14  1  0  0  0  0
  3  4  2  0  0  0  0
  4  6  1  0  0  0  0
  4  5  2  0  0  0  0
  6  7  2  0  0  0  0
  7  8  1  0  0  0  0
  8  9  1  0  0  0  0
  8 12  2  0  0  0  0
  9 10  2  0  0  0  0
 10 11  1  0  0  0  0
 11 13  1  0  0  0  0
 12 11  1  0  0  0  0
 13 21  1  0  0  0  0
 13 20  1  0  0  0  0
 14  6  1  0  0  0  0
 15  1  1  0  0  0  0
 16  7  1  0  0  0  0
 17  9  1  0  0  0  0
 18 12  1  0  0  0  0
 19 13  1  0  0  0  0
M  END
