114766461.xyz
 OpenBabel07262113433D
CCn1c(S)nc2c1c(C)c(cc2)Cl
 25 26  0  0  1  0  0  0  0  0999 V2000
   -2.9674    1.4964    1.5541 C   0  0  0  0  0  0  0  0  0  0  0  0
   -2.5106    0.0687    1.8405 C   0  0  0  0  0  0  0  0  0  0  0  0
   -1.1944    0.0043    2.4642 N   0  0  0  0  0  0  0  0  0  0  0  0
   -0.0000    0.0000    1.7635 C   0  0  0  0  0  0  0  0  0  0  0  0
    0.0000    0.0000    0.0000 S   0  0  0  0  0  0  0  0  0  0  0  0
    1.0589    0.0000    2.5399 N   0  0  0  0  0  0  0  0  0  0  0  0
    0.5676    0.0158    3.8309 C   0  0  0  0  0  0  0  0  0  0  0  0
   -0.8543    0.0317    3.8212 C   0  0  0  0  0  0  0  0  0  0  0  0
   -1.6307    0.0600    4.9989 C   0  0  0  0  0  0  0  0  0  0  0  0
   -3.1376    0.0786    5.0021 C   0  0  0  0  0  0  0  0  0  0  0  0
   -0.8771    0.0581    6.1862 C   0  0  2  0  0  0  0  0  0  0  0  0
    0.5310    0.0375    6.2196 C   0  0  0  0  0  0  0  0  0  0  0  0
    1.2675    0.0167    5.0431 C   0  0  0  0  0  0  0  0  0  0  0  0
   -1.6931    0.0776    7.7462 Cl  0  0  0  0  0  0  0  0  0  0  0  0
   -3.0268    2.0878    2.4806 H   0  0  0  0  0  0  0  0  0  0  0  0
   -2.2634    1.9971    0.8724 H   0  0  0  0  0  0  0  0  0  0  0  0
   -3.9618    1.4919    1.0812 H   0  0  0  0  0  0  0  0  0  0  0  0
   -2.4518   -0.5078    0.9044 H   0  0  0  0  0  0  0  0  0  0  0  0
   -3.2240   -0.4562    2.4859 H   0  0  0  0  0  0  0  0  0  0  0  0
    2.2928   -0.2060   -0.2492 Au  0  0  0  0  0  0  0  0  0  0  0  0
   -3.5549   -0.8920    4.6863 H   0  0  0  0  0  0  0  0  0  0  0  0
   -3.5374    0.8499    4.3280 H   0  0  0  0  0  0  0  0  0  0  0  0
   -3.5170    0.2843    6.0090 H   0  0  0  0  0  0  0  0  0  0  0  0
    1.0287    0.0390    7.1897 H   0  0  0  0  0  0  0  0  0  0  0  0
    2.3583    0.0025    5.0508 H   0  0  0  0  0  0  0  0  0  0  0  0
  1  2  1  0  0  0  0
  1 15  1  0  0  0  0
  2  3  1  0  0  0  0
  2 19  1  0  0  0  0
  3  8  1  0  0  0  0
  4  3  1  0  0  0  0
  4  6  2  0  0  0  0
  5  4  1  0  0  0  0
  6  7  2  0  0  0  0
  7 13  1  0  0  0  0
  8  7  1  0  0  0  0
  8  9  2  0  0  0  0
  9 10  1  0  0  0  0
  9 11  1  0  0  0  0
 10 23  1  0  0  0  0
 11 12  1  0  0  0  0
 11 14  1  1  0  0  0
 12 24  1  0  0  0  0
 13 25  1  0  0  0  0
 13 12  2  0  0  0  0
 16  1  1  0  0  0  0
 17  1  1  0  0  0  0
 18  2  1  0  0  0  0
 20  5  1  0  0  0  0
 21 10  1  0  0  0  0
 22 10  1  0  0  0  0
M  RAD  1  11   2
M  END
