114762511.xyz
 OpenBabel07262113433D
Sc1nccn1C(c1nccs1)(C)C
 25 26  0  0  0  0  0  0  0  0999 V2000
    0.0000    0.0000    0.0000 S   0  0  0  0  0  0  0  0  0  0  0  0
    0.0000    0.0000    1.7740 C   0  0  0  0  0  0  0  0  0  0  0  0
   -1.0966    0.0167    2.5116 N   0  0  0  0  0  0  0  0  0  0  0  0
   -0.6801    0.0340    3.8192 C   0  0  0  0  0  0  0  0  0  0  0  0
    0.6892    0.0279    3.8798 C   0  0  0  0  0  0  0  0  0  0  0  0
    1.1343    0.0000    2.5609 N   0  0  0  0  0  0  0  0  0  0  0  0
    2.5594   -0.0022    2.1178 C   0  0  0  0  0  0  0  0  0  0  0  0
    3.4390   -0.0382    3.3578 C   0  0  0  0  0  0  0  0  0  0  0  0
    3.8592    1.0190    3.9885 N   0  0  0  0  0  0  0  0  0  0  0  0
    4.5922    0.6973    5.0993 C   0  0  0  0  0  0  0  0  0  0  0  0
    4.7408   -0.6451    5.3366 C   0  0  0  0  0  0  0  0  0  0  0  0
    3.9340   -1.5507    4.1073 S   0  0  0  0  0  0  0  0  0  0  0  0
    2.8558    1.2925    1.3469 C   0  0  0  0  0  0  0  0  0  0  0  0
    2.8226   -1.2467    1.2559 C   0  0  0  0  0  0  0  0  0  0  0  0
   -2.3075    0.0108   -0.2203 Au  0  0  0  0  0  0  0  0  0  0  0  0
   -1.3890    0.0522    4.6453 H   0  0  0  0  0  0  0  0  0  0  0  0
    1.3743    0.0515    4.7187 H   0  0  0  0  0  0  0  0  0  0  0  0
    5.0117    1.4908    5.7198 H   0  0  0  0  0  0  0  0  0  0  0  0
    5.2828   -1.1361    6.1427 H   0  0  0  0  0  0  0  0  0  0  0  0
    2.1989    1.3716    0.4698 H   0  0  0  0  0  0  0  0  0  0  0  0
    3.9023    1.2952    1.0101 H   0  0  0  0  0  0  0  0  0  0  0  0
    2.7000    2.1606    1.9990 H   0  0  0  0  0  0  0  0  0  0  0  0
    3.8797   -1.2794    0.9561 H   0  0  0  0  0  0  0  0  0  0  0  0
    2.5793   -2.1658    1.8100 H   0  0  0  0  0  0  0  0  0  0  0  0
    2.2019   -1.2319    0.3502 H   0  0  0  0  0  0  0  0  0  0  0  0
  1  2  1  0  0  0  0
  2  3  2  0  0  0  0
  2  6  1  0  0  0  0
  3  4  2  0  0  0  0
  4  5  1  0  0  0  0
  4 16  1  0  0  0  0
  5 17  1  0  0  0  0
  6  5  1  0  0  0  0
  7  6  1  0  0  0  0
  7  8  1  0  0  0  0
  8  9  2  0  0  0  0
  8 12  1  0  0  0  0
  9 10  2  0  0  0  0
 10 11  1  0  0  0  0
 10 18  1  0  0  0  0
 11 19  1  0  0  0  0
 12 11  1  0  0  0  0
 13 22  1  0  0  0  0
 13  7  1  0  0  0  0
 14 24  1  0  0  0  0
 14  7  1  0  0  0  0
 15  1  1  0  0  0  0
 20 13  1  0  0  0  0
 21 13  1  0  0  0  0
 23 14  1  0  0  0  0
 25 14  1  0  0  0  0
M  RAD  2   5   2  11   2
M  END
