114778884.xyz
 OpenBabel07262113433D
CCn1c(S)nc2c1cc(Cl)c(c2)F
 22 23  0  0  1  0  0  0  0  0999 V2000
   -3.0134   -1.5123    1.6724 C   0  0  0  0  0  0  0  0  0  0  0  0
   -2.5371   -0.0795    1.8955 C   0  0  0  0  0  0  0  0  0  0  0  0
   -1.1961   -0.0091    2.4535 N   0  0  0  0  0  0  0  0  0  0  0  0
   -0.0000   -0.0000    1.7595 C   0  0  0  0  0  0  0  0  0  0  0  0
    0.0000    0.0000    0.0000 S   0  0  0  0  0  0  0  0  0  0  0  0
    1.0569   -0.0000    2.5465 N   0  0  0  0  0  0  0  0  0  0  0  0
    0.5577   -0.0236    3.8342 C   0  0  0  0  0  0  0  0  0  0  0  0
   -0.8621   -0.0424    3.8016 C   0  0  0  0  0  0  0  0  0  0  0  0
   -1.6395   -0.0787    4.9582 C   0  0  0  0  0  0  0  0  0  0  0  0
   -0.9583   -0.0880    6.1779 C   0  0  1  0  0  0  0  0  0  0  0  0
   -1.8464   -0.1342    7.6753 Cl  0  0  0  0  0  0  0  0  0  0  0  0
    0.4523   -0.0634    6.2200 C   0  0  0  0  0  0  0  0  0  0  0  0
    1.2250   -0.0309    5.0662 C   0  0  0  0  0  0  0  0  0  0  0  0
    1.0605   -0.0743    7.4118 F   0  0  0  0  0  0  0  0  0  0  0  0
   -3.0194   -2.0766    2.6175 H   0  0  0  0  0  0  0  0  0  0  0  0
   -2.3516   -2.0320    0.9631 H   0  0  0  0  0  0  0  0  0  0  0  0
   -4.0341   -1.5169    1.2597 H   0  0  0  0  0  0  0  0  0  0  0  0
   -3.2090    0.4586    2.5822 H   0  0  0  0  0  0  0  0  0  0  0  0
   -2.5333    0.4834    0.9493 H   0  0  0  0  0  0  0  0  0  0  0  0
    2.2928    0.1957   -0.2577 Au  0  0  0  0  0  0  0  0  0  0  0  0
   -2.7290   -0.1024    4.9439 H   0  0  0  0  0  0  0  0  0  0  0  0
    2.3128   -0.0142    5.1354 H   0  0  0  0  0  0  0  0  0  0  0  0
  1  2  1  0  0  0  0
  1 15  1  0  0  0  0
  2  3  1  0  0  0  0
  2 18  1  0  0  0  0
  3  8  1  0  0  0  0
  4  3  1  0  0  0  0
  4  6  2  0  0  0  0
  5  4  1  0  0  0  0
  6  7  2  0  0  0  0
  7 13  1  0  0  0  0
  8  7  1  0  0  0  0
  8  9  2  0  0  0  0
  9 10  1  0  0  0  0
 10 12  1  0  0  0  0
 10 11  1  6  0  0  0
 12 14  1  0  0  0  0
 13 22  1  0  0  0  0
 13 12  2  0  0  0  0
 16  1  1  0  0  0  0
 17  1  1  0  0  0  0
 19  2  1  0  0  0  0
 20  5  1  0  0  0  0
 21  9  1  0  0  0  0
M  RAD  1  10   2
M  END
