114716837.xyz
 OpenBabel07262113433D
CCN1CCC(C1=O)n1cnnc1S
 26 27  0  0  1  0  0  0  0  0999 V2000
    6.9965   -0.3653    2.4967 C   0  0  0  0  0  0  0  0  0  0  0  0
    5.9553    0.3616    3.3463 C   0  0  0  0  0  0  0  0  0  0  0  0
    4.6732    0.5058    2.6834 N   0  0  0  0  0  0  0  0  0  0  0  0
    4.4567    1.3851    1.5435 C   0  0  0  0  0  0  0  0  0  0  0  0
    2.9269    1.4386    1.4321 C   0  0  0  0  0  0  0  0  0  0  0  0
    2.4992    0.0669    1.9705 C   0  0  1  0  0  0  0  0  0  0  0  0
    3.5934   -0.2648    3.0027 C   0  0  0  0  0  0  0  0  0  0  0  0
    3.5186   -1.0726    3.9064 O   0  0  0  0  0  0  0  0  0  0  0  0
    1.1557    0.0000    2.5012 N   0  0  0  0  0  0  0  0  0  0  0  0
    0.7170   -0.0050    3.8121 C   0  0  0  0  0  0  0  0  0  0  0  0
   -0.5879   -0.0102    3.8493 N   0  0  0  0  0  0  0  0  0  0  0  0
   -1.0477   -0.0043    2.5586 N   0  0  0  0  0  0  0  0  0  0  0  0
    0.0000    0.0000    1.7576 C   0  0  0  0  0  0  0  0  0  0  0  0
    0.0000    0.0000    0.0000 S   0  0  0  0  0  0  0  0  0  0  0  0
    7.9435   -0.4578    3.0505 H   0  0  0  0  0  0  0  0  0  0  0  0
    6.6500   -1.3782    2.2397 H   0  0  0  0  0  0  0  0  0  0  0  0
    7.2092    0.1747    1.5601 H   0  0  0  0  0  0  0  0  0  0  0  0
    6.3194    1.3657    3.6269 H   0  0  0  0  0  0  0  0  0  0  0  0
    5.7598   -0.1954    4.2740 H   0  0  0  0  0  0  0  0  0  0  0  0
    4.9063    2.3745    1.7261 H   0  0  0  0  0  0  0  0  0  0  0  0
    4.9172    0.9755    0.6250 H   0  0  0  0  0  0  0  0  0  0  0  0
    2.5676    1.6349    0.4139 H   0  0  0  0  0  0  0  0  0  0  0  0
    2.5235    2.2169    2.0982 H   0  0  0  0  0  0  0  0  0  0  0  0
    2.5800   -0.6948    1.1736 H   0  0  0  0  0  0  0  0  0  0  0  0
    1.3937   -0.0475    4.6609 H   0  0  0  0  0  0  0  0  0  0  0  0
   -2.3144   -0.1196   -0.1804 Au  0  0  0  0  0  0  0  0  0  0  0  0
  1 15  1  0  0  0  0
  1  2  1  0  0  0  0
  2 18  1  0  0  0  0
  2 19  1  0  0  0  0
  3  7  1  0  0  0  0
  3  2  1  0  0  0  0
  4 20  1  0  0  0  0
  4  3  1  0  0  0  0
  5  4  1  0  0  0  0
  5  6  1  0  0  0  0
  5 23  1  0  0  0  0
  6 24  1  6  0  0  0
  6  9  1  0  0  0  0
  6  7  1  0  0  0  0
  7  8  2  0  0  0  0
  9 10  1  0  0  0  0
 10 11  2  0  0  0  0
 10 25  1  0  0  0  0
 12 11  1  0  0  0  0
 13  9  1  0  0  0  0
 13 12  2  0  0  0  0
 14 13  1  0  0  0  0
 16  1  1  0  0  0  0
 17  1  1  0  0  0  0
 21  4  1  0  0  0  0
 22  5  1  0  0  0  0
 26 14  1  0  0  0  0
M  END
