114879383.xyz
 OpenBabel07262113433D
Clc1cc(cc(c1)Br)NC(=O)C(S)C
 23 23  0  0  1  0  0  0  0  0999 V2000
   -4.2131    4.7133    5.0909 Cl  0  0  0  0  0  0  0  0  0  0  0  0
   -4.0929    3.9364    3.5311 C   0  0  0  0  0  0  0  0  0  0  0  0
   -3.0579    3.0265    3.3138 C   0  0  0  0  0  0  0  0  0  0  0  0
   -2.9630    2.4032    2.0585 C   0  0  0  0  0  0  0  0  0  0  0  0
   -3.8994    2.7024    1.0518 C   0  0  0  0  0  0  0  0  0  0  0  0
   -4.9163    3.6166    1.3126 C   0  0  0  0  0  0  0  0  0  0  0  0
   -5.0366    4.2513    2.5503 C   0  0  0  0  0  0  0  0  0  0  0  0
   -6.1775    4.0135   -0.0594 Br  0  0  0  0  0  0  0  0  0  0  0  0
   -1.9613    1.4780    1.7426 N   0  0  0  0  0  0  0  0  0  0  0  0
   -0.9045    1.0634    2.5069 C   0  0  0  0  0  0  0  0  0  0  0  0
   -0.6768    1.4410    3.6413 O   0  0  0  0  0  0  0  0  0  0  0  0
   -0.0000    0.0000    1.8452 C   0  0  1  0  0  0  0  0  0  0  0  0
    0.0000    0.0000    0.0000 S   0  0  0  0  0  0  0  0  0  0  0  0
    1.3915    0.0000    2.4656 C   0  0  0  0  0  0  0  0  0  0  0  0
   -2.3335    2.8005    4.0904 H   0  0  0  0  0  0  0  0  0  0  0  0
   -3.8299    2.2224    0.0744 H   0  0  0  0  0  0  0  0  0  0  0  0
   -5.8336    4.9657    2.7495 H   0  0  0  0  0  0  0  0  0  0  0  0
   -1.9662    1.1062    0.7943 H   0  0  0  0  0  0  0  0  0  0  0  0
   -0.4874   -0.9731    2.0506 H   0  0  0  0  0  0  0  0  0  0  0  0
    0.9422    2.0423   -0.4887 Au  0  0  0  0  0  0  0  0  0  0  0  0
    1.9038    0.9517    2.2540 H   0  0  0  0  0  0  0  0  0  0  0  0
    1.3144   -0.1063    3.5564 H   0  0  0  0  0  0  0  0  0  0  0  0
    1.9942   -0.8208    2.0544 H   0  0  0  0  0  0  0  0  0  0  0  0
  2  1  1  0  0  0  0
  3  2  1  0  0  0  0
  3 15  1  0  0  0  0
  4  3  2  0  0  0  0
  5  6  2  0  0  0  0
  5  4  1  0  0  0  0
  6  7  1  0  0  0  0
  7 17  1  0  0  0  0
  7  2  2  0  0  0  0
  8  6  1  0  0  0  0
  9  4  1  0  0  0  0
  9 10  1  0  0  0  0
 10 11  2  0  0  0  0
 12 19  1  1  0  0  0
 12 14  1  0  0  0  0
 12 10  1  0  0  0  0
 13 12  1  0  0  0  0
 14 22  1  0  0  0  0
 16  5  1  0  0  0  0
 18  9  1  0  0  0  0
 20 13  1  0  0  0  0
 21 14  1  0  0  0  0
 23 14  1  0  0  0  0
M  END
