114855232.xyz
 OpenBabel07262113433D
O=C1NC(=NC1c1cncc(c1)Br)S
 20 21  0  0  1  0  0  0  0  0999 V2000
   -1.8812   -0.0397    4.6360 O   0  0  0  0  0  0  0  0  0  0  0  0
   -1.0389   -0.0211    3.7766 C   0  0  0  0  0  0  0  0  0  0  0  0
   -1.2382    0.0004    2.4026 N   0  0  0  0  0  0  0  0  0  0  0  0
    0.0000    0.0000    1.7538 C   0  0  0  0  0  0  0  0  0  0  0  0
    1.0169    0.0000    2.5402 N   0  0  0  0  0  0  0  0  0  0  0  0
    0.5060   -0.0048    3.9049 C   0  0  2  0  0  0  0  0  0  0  0  0
    1.0204   -1.1529    4.7486 C   0  0  1  0  0  0  0  0  0  0  0  0
    0.6679   -1.2577    6.1033 C   0  0  0  0  0  0  0  0  0  0  0  0
    1.0807   -2.2513    6.8894 N   0  0  0  0  0  0  0  0  0  0  0  0
    1.8671   -3.1964    6.3744 C   0  0  0  0  0  0  0  0  0  0  0  0
    2.2691   -3.1745    5.0349 C   0  0  0  0  0  0  0  0  0  0  0  0
    1.8429   -2.1406    4.2022 C   0  0  0  0  0  0  0  0  0  0  0  0
    3.3938   -4.5521    4.3566 Br  0  0  0  0  0  0  0  0  0  0  0  0
    0.0000    0.0000    0.0000 S   0  0  0  0  0  0  0  0  0  0  0  0
   -2.1493   -0.0251    1.9586 H   0  0  0  0  0  0  0  0  0  0  0  0
    0.7740    0.9462    4.4030 H   0  0  0  0  0  0  0  0  0  0  0  0
    0.0125   -0.5069    6.5562 H   0  0  0  0  0  0  0  0  0  0  0  0
    2.1953   -4.0028    7.0381 H   0  0  0  0  0  0  0  0  0  0  0  0
    2.1376   -2.0887    3.1543 H   0  0  0  0  0  0  0  0  0  0  0  0
    2.3013   -0.0431   -0.2773 Au  0  0  0  0  0  0  0  0  0  0  0  0
  2  6  1  0  0  0  0
  2  1  2  0  0  0  0
  3  2  1  0  0  0  0
  4  3  1  0  0  0  0
  4  5  2  0  0  0  0
  5  6  1  0  0  0  0
  6 16  1  1  0  0  0
  6  7  1  0  0  0  0
  7 12  1  6  0  0  0
  7  8  1  0  0  0  0
  8 17  1  0  0  0  0
  8  9  2  0  0  0  0
 10  9  2  0  0  0  0
 10 18  1  0  0  0  0
 11 10  1  0  0  0  0
 12 11  2  0  0  0  0
 13 11  1  0  0  0  0
 14  4  1  0  0  0  0
 15  3  1  0  0  0  0
 19 12  1  0  0  0  0
 20 14  1  0  0  0  0
M  RAD  1   7   2
M  END
