114878330.xyz
 OpenBabel07262113433D
Brc1cnc(nc1S)C1CSCCO1
 23 24  0  0  1  0  0  0  0  0999 V2000
   -2.9241    0.0134    2.3247 Br  0  0  0  0  0  0  0  0  0  0  0  0
   -1.0575   -0.0008    2.7092 C   0  0  1  0  0  0  0  0  0  0  0  0
   -0.7068   -0.0180    4.0623 C   0  0  0  0  0  0  0  0  0  0  0  0
    0.5550   -0.0109    4.4864 N   0  0  0  0  0  0  0  0  0  0  0  0
    1.4942    0.0111    3.5355 C   0  0  0  0  0  0  0  0  0  0  0  0
    1.2548   -0.0000    2.2271 N   0  0  0  0  0  0  0  0  0  0  0  0
   -0.0000   -0.0000    1.7663 C   0  0  0  0  0  0  0  0  0  0  0  0
    0.0000    0.0000    0.0000 S   0  0  0  0  0  0  0  0  0  0  0  0
    2.9503    0.0222    3.9628 C   0  0  1  0  0  0  0  0  0  0  0  0
    3.5930   -1.3395    3.6493 C   0  0  0  0  0  0  0  0  0  0  0  0
    5.4105   -1.2807    3.7787 S   0  0  0  0  0  0  0  0  0  0  0  0
    5.7099    0.1191    2.6103 C   0  0  0  0  0  0  0  0  0  0  0  0
    4.4084    0.8208    2.2261 C   0  0  0  0  0  0  0  0  0  0  0  0
    3.6229    1.1183    3.3630 O   0  0  0  0  0  0  0  0  0  0  0  0
   -1.4938   -0.0343    4.8239 H   0  0  0  0  0  0  0  0  0  0  0  0
   -2.1967   -0.1105   -0.6811 Au  0  0  0  0  0  0  0  0  0  0  0  0
    2.9765    0.1933    5.0483 H   0  0  0  0  0  0  0  0  0  0  0  0
    3.2875   -1.6903    2.6523 H   0  0  0  0  0  0  0  0  0  0  0  0
    3.2516   -2.0858    4.3805 H   0  0  0  0  0  0  0  0  0  0  0  0
    6.3780    0.8210    3.1307 H   0  0  0  0  0  0  0  0  0  0  0  0
    6.2248   -0.2505    1.7090 H   0  0  0  0  0  0  0  0  0  0  0  0
    4.6424    1.7875    1.7538 H   0  0  0  0  0  0  0  0  0  0  0  0
    3.8349    0.2327    1.4910 H   0  0  0  0  0  0  0  0  0  0  0  0
  2  1  1  6  0  0  0
  2  3  1  0  0  0  0
  3  4  2  0  0  0  0
  3 15  1  0  0  0  0
  5  9  1  0  0  0  0
  5  4  2  0  0  0  0
  6  5  2  0  0  0  0
  7  6  2  0  0  0  0
  7  2  1  0  0  0  0
  8  7  1  0  0  0  0
  9 17  1  1  0  0  0
 10 11  1  0  0  0  0
 10  9  1  0  0  0  0
 10 19  1  0  0  0  0
 12 20  1  0  0  0  0
 12 11  1  0  0  0  0
 13 12  1  0  0  0  0
 13 14  1  0  0  0  0
 14  9  1  0  0  0  0
 16  8  1  0  0  0  0
 18 10  1  0  0  0  0
 21 12  1  0  0  0  0
 22 13  1  0  0  0  0
 23 13  1  0  0  0  0
M  RAD  1   2   2
M  END
