114804224.xyz
 OpenBabel07262113433D
Clc1ccc(c(c1)Cl)c1coc(n1)S
 19 20  0  0  0  0  0  0  0  0999 V2000
   -4.5454   -0.5450    8.3021 Cl  0  0  0  0  0  0  0  0  0  0  0  0
   -3.3629   -0.4280    7.0262 C   0  0  0  0  0  0  0  0  0  0  0  0
   -3.7770   -0.3574    5.6931 C   0  0  0  0  0  0  0  0  0  0  0  0
   -2.8185   -0.2641    4.6919 C   0  0  0  0  0  0  0  0  0  0  0  0
   -1.4354   -0.2380    4.9688 C   0  0  0  0  0  0  0  0  0  0  0  0
   -1.0606   -0.3119    6.3255 C   0  0  0  0  0  0  0  0  0  0  0  0
   -2.0072   -0.4058    7.3486 C   0  0  0  0  0  0  0  0  0  0  0  0
    0.6184   -0.2922    6.8242 Cl  0  0  0  0  0  0  0  0  0  0  0  0
   -0.5148   -0.1372    3.8278 C   0  0  0  0  0  0  0  0  0  0  0  0
    0.8582   -0.0745    3.7316 C   0  0  0  0  0  0  0  0  0  0  0  0
    1.1875   -0.0000    2.4181 O   0  0  0  0  0  0  0  0  0  0  0  0
   -0.0000   -0.0000    1.7427 C   0  0  0  0  0  0  0  0  0  0  0  0
   -1.0254   -0.0745    2.5376 N   0  0  0  0  0  0  0  0  0  0  0  0
    0.0000    0.0000    0.0000 S   0  0  0  0  0  0  0  0  0  0  0  0
   -4.8398   -0.3758    5.4500 H   0  0  0  0  0  0  0  0  0  0  0  0
   -3.1190   -0.2081    3.6455 H   0  0  0  0  0  0  0  0  0  0  0  0
   -1.6822   -0.4613    8.3867 H   0  0  0  0  0  0  0  0  0  0  0  0
    1.6733   -0.0678    4.4433 H   0  0  0  0  0  0  0  0  0  0  0  0
    0.8870    2.0824   -0.4645 Au  0  0  0  0  0  0  0  0  0  0  0  0
  2  7  1  0  0  0  0
  2  1  1  0  0  0  0
  3  2  2  0  0  0  0
  4  5  2  0  0  0  0
  4  3  1  0  0  0  0
  5  6  1  0  0  0  0
  6  8  1  0  0  0  0
  6  7  2  0  0  0  0
  7 17  1  0  0  0  0
  9  5  1  0  0  0  0
 10  9  1  0  0  0  0
 10 18  1  0  0  0  0
 11 10  1  0  0  0  0
 12 11  1  0  0  0  0
 12 13  2  0  0  0  0
 13  9  2  0  0  0  0
 14 12  1  0  0  0  0
 15  3  1  0  0  0  0
 16  4  1  0  0  0  0
 19 14  1  0  0  0  0
M  RAD  1  10   2
M  END
