114849407.xyz
 OpenBabel07262113433D
Brc1ccc(cc1)c1nccc(n1)S
 21 22  0  0  0  0  0  0  0  0999 V2000
    6.4173   -0.0005    6.9172 Br  0  0  0  0  0  0  0  0  0  0  0  0
    4.7756   -0.0006    5.9526 C   0  0  0  0  0  0  0  0  0  0  0  0
    4.7987   -0.0002    4.5547 C   0  0  0  0  0  0  0  0  0  0  0  0
    3.5940   -0.0001    3.8544 C   0  0  0  0  0  0  0  0  0  0  0  0
    2.3660   -0.0004    4.5350 C   0  0  0  0  0  0  0  0  0  0  0  0
    2.3675   -0.0009    5.9396 C   0  0  0  0  0  0  0  0  0  0  0  0
    3.5650   -0.0010    6.6519 C   0  0  0  0  0  0  0  0  0  0  0  0
    1.0817   -0.0002    3.7919 C   0  0  0  0  0  0  0  0  0  0  0  0
   -0.0517   -0.0004    4.5053 N   0  0  0  0  0  0  0  0  0  0  0  0
   -1.1953   -0.0003    3.8174 C   0  0  0  0  0  0  0  0  0  0  0  0
   -1.2443   -0.0001    2.4281 C   0  0  0  0  0  0  0  0  0  0  0  0
    0.0000   -0.0000    1.7641 C   0  0  0  0  0  0  0  0  0  0  0  0
    1.1424   -0.0000    2.4511 N   0  0  0  0  0  0  0  0  0  0  0  0
    0.0000    0.0000    0.0000 S   0  0  0  0  0  0  0  0  0  0  0  0
    5.7515    0.0001    4.0235 H   0  0  0  0  0  0  0  0  0  0  0  0
    3.5911    0.0003    2.7643 H   0  0  0  0  0  0  0  0  0  0  0  0
    1.4097   -0.0012    6.4606 H   0  0  0  0  0  0  0  0  0  0  0  0
    3.5626   -0.0013    7.7427 H   0  0  0  0  0  0  0  0  0  0  0  0
   -2.1225   -0.0004    4.4021 H   0  0  0  0  0  0  0  0  0  0  0  0
   -2.1899   -0.0000    1.8855 H   0  0  0  0  0  0  0  0  0  0  0  0
    2.2752    0.0014   -0.4080 Au  0  0  0  0  0  0  0  0  0  0  0  0
  2  7  1  0  0  0  0
  2  1  1  0  0  0  0
  3  2  2  0  0  0  0
  4  5  2  0  0  0  0
  4  3  1  0  0  0  0
  5  6  1  0  0  0  0
  6 17  1  0  0  0  0
  6  7  2  0  0  0  0
  7 18  1  0  0  0  0
  8  9  2  0  0  0  0
  8  5  1  0  0  0  0
 10 19  1  0  0  0  0
 10  9  2  0  0  0  0
 11 10  1  0  0  0  0
 12 11  1  0  0  0  0
 12 13  2  0  0  0  0
 13  8  2  0  0  0  0
 14 12  1  0  0  0  0
 15  3  1  0  0  0  0
 16  4  1  0  0  0  0
 20 11  1  0  0  0  0
 21 14  1  0  0  0  0
M  RAD  1  11   2
M  END
