114876802.xyz
 OpenBabel07262113433D
CCn1c(S)nnc1c1nscc1Br
 21 22  0  0  0  0  0  0  0  0999 V2000
   -3.0265    1.4085    1.7060 C   0  0  0  0  0  0  0  0  0  0  0  0
   -2.5086    0.0001    1.9693 C   0  0  0  0  0  0  0  0  0  0  0  0
   -1.1452   -0.0032    2.5020 N   0  0  0  0  0  0  0  0  0  0  0  0
    0.0000    0.0000    1.7541 C   0  0  0  0  0  0  0  0  0  0  0  0
    0.0000    0.0000    0.0000 S   0  0  0  0  0  0  0  0  0  0  0  0
    1.0635    0.0000    2.5479 N   0  0  0  0  0  0  0  0  0  0  0  0
    0.6236    0.0018    3.8285 N   0  0  0  0  0  0  0  0  0  0  0  0
   -0.6942    0.0076    3.8156 C   0  0  0  0  0  0  0  0  0  0  0  0
   -1.5498    0.0453    4.9980 C   0  0  0  0  0  0  0  0  0  0  0  0
   -2.8231    0.3904    4.8776 N   0  0  0  0  0  0  0  0  0  0  0  0
   -3.5886    0.3721    6.3574 S   0  0  0  0  0  0  0  0  0  0  0  0
   -2.1861   -0.1112    7.2251 C   0  0  0  0  0  0  0  0  0  0  0  0
   -1.1362   -0.2564    6.3528 C   0  0  0  0  0  0  0  0  0  0  0  0
    0.5685   -0.8135    6.9218 Br  0  0  0  0  0  0  0  0  0  0  0  0
   -4.0384    1.3606    1.2748 H   0  0  0  0  0  0  0  0  0  0  0  0
   -3.0775    1.9739    2.6472 H   0  0  0  0  0  0  0  0  0  0  0  0
   -2.3742    1.9408    0.9970 H   0  0  0  0  0  0  0  0  0  0  0  0
   -3.1481   -0.5163    2.6938 H   0  0  0  0  0  0  0  0  0  0  0  0
   -2.4849   -0.5929    1.0422 H   0  0  0  0  0  0  0  0  0  0  0  0
    2.3105   -0.1375   -0.2029 Au  0  0  0  0  0  0  0  0  0  0  0  0
   -2.1741   -0.2750    8.3013 H   0  0  0  0  0  0  0  0  0  0  0  0
  1  2  1  0  0  0  0
  1 16  1  0  0  0  0
  2  3  1  0  0  0  0
  2 18  1  0  0  0  0
  3  8  1  0  0  0  0
  4  3  1  0  0  0  0
  4  6  2  0  0  0  0
  5  4  1  0  0  0  0
  6  7  1  0  0  0  0
  8  7  2  0  0  0  0
  8  9  1  0  0  0  0
  9 13  1  0  0  0  0
 10  9  2  0  0  0  0
 10 11  1  0  0  0  0
 11 12  1  0  0  0  0
 12 21  1  0  0  0  0
 13 14  1  0  0  0  0
 13 12  2  0  0  0  0
 15  1  1  0  0  0  0
 17  1  1  0  0  0  0
 19  2  1  0  0  0  0
 20  5  1  0  0  0  0
M  END
