114858298.xyz
 OpenBabel07262113433D
Brc1cnc(nc1S)c1cccs1
 18 19  0  0  1  0  0  0  0  0999 V2000
   -2.8948   -0.0000    1.5839 Br  0  0  0  0  0  0  0  0  0  0  0  0
   -1.2221   -0.0000    2.4707 C   0  0  2  0  0  0  0  0  0  0  0  0
   -1.1531    0.0000    3.8643 C   0  0  0  0  0  0  0  0  0  0  0  0
    0.0018    0.0001    4.5250 N   0  0  0  0  0  0  0  0  0  0  0  0
    1.1179    0.0000    3.7796 C   0  0  0  0  0  0  0  0  0  0  0  0
    1.1483   -0.0000    2.4397 N   0  0  0  0  0  0  0  0  0  0  0  0
    0.0000   -0.0000    1.7601 C   0  0  0  0  0  0  0  0  0  0  0  0
    0.0000    0.0000    0.0000 S   0  0  0  0  0  0  0  0  0  0  0  0
    2.4037    0.0001    4.4694 C   0  0  0  0  0  0  0  0  0  0  0  0
    2.6389    0.0001    5.8295 C   0  0  0  0  0  0  0  0  0  0  0  0
    4.0251    0.0002    6.1470 C   0  0  0  0  0  0  0  0  0  0  0  0
    4.8212    0.0002    5.0242 C   0  0  0  0  0  0  0  0  0  0  0  0
    3.8947    0.0001    3.5671 S   0  0  0  0  0  0  0  0  0  0  0  0
   -2.0763    0.0001    4.4542 H   0  0  0  0  0  0  0  0  0  0  0  0
    2.2944    0.0012   -0.3388 Au  0  0  0  0  0  0  0  0  0  0  0  0
    1.8232    0.0001    6.5516 H   0  0  0  0  0  0  0  0  0  0  0  0
    4.4202    0.0002    7.1636 H   0  0  0  0  0  0  0  0  0  0  0  0
    5.9094    0.0002    4.9782 H   0  0  0  0  0  0  0  0  0  0  0  0
  2  1  1  6  0  0  0
  2  3  1  0  0  0  0
  3 14  1  0  0  0  0
  3  4  2  0  0  0  0
  5  9  1  0  0  0  0
  5  4  2  0  0  0  0
  6  5  2  0  0  0  0
  7  6  2  0  0  0  0
  7  2  1  0  0  0  0
  8  7  1  0  0  0  0
  9 10  2  0  0  0  0
 10 11  1  0  0  0  0
 10 16  1  0  0  0  0
 11 17  1  0  0  0  0
 12 11  2  0  0  0  0
 13  9  1  0  0  0  0
 13 12  1  0  0  0  0
 15  8  1  0  0  0  0
 18 12  1  0  0  0  0
M  RAD  1   2   2
M  END
