114894736.xyz
 OpenBabel07262113433D
Cc1ccc(cc1NC(=O)CCS)I
 26 26  0  0  0  0  0  0  0  0999 V2000
    5.2595   -0.7012   -0.3357 C   0  0  0  0  0  0  0  0  0  0  0  0
    4.5628   -2.0356   -0.3528 C   0  0  0  0  0  0  0  0  0  0  0  0
    4.8676   -2.9973   -1.3208 C   0  0  0  0  0  0  0  0  0  0  0  0
    4.2018   -4.2237   -1.3990 C   0  0  0  0  0  0  0  0  0  0  0  0
    3.2111   -4.5001   -0.4586 C   0  0  0  0  0  0  0  0  0  0  0  0
    2.8775   -3.5786    0.5452 C   0  0  0  0  0  0  0  0  0  0  0  0
    3.5479   -2.3303    0.5869 C   0  0  0  0  0  0  0  0  0  0  0  0
    3.1570   -1.3154    1.4741 N   0  0  0  0  0  0  0  0  0  0  0  0
    2.0524   -1.3439    2.3134 C   0  0  0  0  0  0  0  0  0  0  0  0
    1.5924   -2.3683    2.7789 O   0  0  0  0  0  0  0  0  0  0  0  0
    1.3771    0.0000    2.5315 C   0  0  0  0  0  0  0  0  0  0  0  0
    0.0000   -0.0000    1.8455 C   0  0  0  0  0  0  0  0  0  0  0  0
    0.0000    0.0000    0.0000 S   0  0  0  0  0  0  0  0  0  0  0  0
    2.1883   -6.3614   -0.5218 I   0  0  0  0  0  0  0  0  0  0  0  0
    5.7039   -0.4835    0.6499 H   0  0  0  0  0  0  0  0  0  0  0  0
    6.0642   -0.6672   -1.0823 H   0  0  0  0  0  0  0  0  0  0  0  0
    4.5613    0.1225   -0.5741 H   0  0  0  0  0  0  0  0  0  0  0  0
    5.6483   -2.7735   -2.0524 H   0  0  0  0  0  0  0  0  0  0  0  0
    4.4597   -4.9457   -2.1739 H   0  0  0  0  0  0  0  0  0  0  0  0
    2.1806   -3.8298    1.3417 H   0  0  0  0  0  0  0  0  0  0  0  0
    3.4321   -0.3859    1.1811 H   0  0  0  0  0  0  0  0  0  0  0  0
    1.9860    0.8394    2.1619 H   0  0  0  0  0  0  0  0  0  0  0  0
    1.2275    0.1267    3.6164 H   0  0  0  0  0  0  0  0  0  0  0  0
   -0.5364    0.9265    2.1055 H   0  0  0  0  0  0  0  0  0  0  0  0
   -0.5919   -0.8441    2.2255 H   0  0  0  0  0  0  0  0  0  0  0  0
    0.7993   -2.1174   -0.5159 Au  0  0  0  0  0  0  0  0  0  0  0  0
  1 15  1  0  0  0  0
  2  1  1  0  0  0  0
  2  7  2  0  0  0  0
  3  2  1  0  0  0  0
  4  3  2  0  0  0  0
  4  5  1  0  0  0  0
  5  6  2  0  0  0  0
  6  7  1  0  0  0  0
  6 20  1  0  0  0  0
  7  8  1  0  0  0  0
  8  9  1  0  0  0  0
  9 11  1  0  0  0  0
  9 10  2  0  0  0  0
 11 23  1  0  0  0  0
 12 24  1  0  0  0  0
 12 25  1  0  0  0  0
 12 11  1  0  0  0  0
 13 12  1  0  0  0  0
 14  5  1  0  0  0  0
 16  1  1  0  0  0  0
 17  1  1  0  0  0  0
 18  3  1  0  0  0  0
 19  4  1  0  0  0  0
 21  8  1  0  0  0  0
 22 11  1  0  0  0  0
 26 13  1  0  0  0  0
M  END
