13730476.xyz
 OpenBabel07262113433D
Cc1ccc(cc1)n1nc(sc1=S)S
 22 23  0  0  0  0  0  0  0  0999 V2000
   -5.0693    0.2521    7.5613 C   0  0  0  0  0  0  0  0  0  0  0  0
   -3.9301    0.1629    6.5789 C   0  0  0  0  0  0  0  0  0  0  0  0
   -3.9208    0.9313    5.4052 C   0  0  0  0  0  0  0  0  0  0  0  0
   -2.8502    0.8785    4.5139 C   0  0  0  0  0  0  0  0  0  0  0  0
   -1.7631    0.0416    4.7849 C   0  0  0  0  0  0  0  0  0  0  0  0
   -1.7554   -0.7457    5.9403 C   0  0  0  0  0  0  0  0  0  0  0  0
   -2.8322   -0.6760    6.8230 C   0  0  0  0  0  0  0  0  0  0  0  0
   -0.6861   -0.0130    3.8466 N   0  0  0  0  0  0  0  0  0  0  0  0
   -1.0367   -0.0068    2.5207 N   0  0  0  0  0  0  0  0  0  0  0  0
    0.0000    0.0000    1.7496 C   0  0  0  0  0  0  0  0  0  0  0  0
    1.5356    0.0000    2.6148 S   0  0  0  0  0  0  0  0  0  0  0  0
    0.6540    0.0169    4.1635 C   0  0  0  0  0  0  0  0  0  0  0  0
    1.3970    0.0877    5.6308 S   0  0  0  0  0  0  0  0  0  0  0  0
    0.0000    0.0000    0.0000 S   0  0  0  0  0  0  0  0  0  0  0  0
   -4.8321    0.9586    8.3758 H   0  0  0  0  0  0  0  0  0  0  0  0
   -5.2759   -0.7230    8.0285 H   0  0  0  0  0  0  0  0  0  0  0  0
   -5.9929    0.6053    7.0792 H   0  0  0  0  0  0  0  0  0  0  0  0
   -4.7662    1.5882    5.1846 H   0  0  0  0  0  0  0  0  0  0  0  0
   -2.8514    1.4765    3.6025 H   0  0  0  0  0  0  0  0  0  0  0  0
   -0.9132   -1.4032    6.1468 H   0  0  0  0  0  0  0  0  0  0  0  0
   -2.8194   -1.2968    7.7227 H   0  0  0  0  0  0  0  0  0  0  0  0
   -2.2804   -0.1258   -0.3797 Au  0  0  0  0  0  0  0  0  0  0  0  0
  1 16  1  0  0  0  0
  1 15  1  0  0  0  0
  2  7  1  0  0  0  0
  2  1  1  0  0  0  0
  3  2  2  0  0  0  0
  4  5  2  0  0  0  0
  4  3  1  0  0  0  0
  5  6  1  0  0  0  0
  6 20  1  0  0  0  0
  6  7  2  0  0  0  0
  7 21  1  0  0  0  0
  8 12  1  0  0  0  0
  8  5  1  0  0  0  0
  9  8  1  0  0  0  0
 10  9  2  0  0  0  0
 10 11  1  0  0  0  0
 11 12  1  0  0  0  0
 12 13  2  0  0  0  0
 14 10  1  0  0  0  0
 17  1  1  0  0  0  0
 18  3  1  0  0  0  0
 19  4  1  0  0  0  0
 22 14  1  0  0  0  0
M  END
