1507781.xyz
 OpenBabel07262113433D
CCCn1c2ccc(cc2c2c1nc(S)nn2)F
 29 31  0  0  0  0  0  0  0  0999 V2000
   -5.6815    1.5075    3.7889 C   0  0  0  0  0  0  0  0  0  0  0  0
   -4.2089    1.4714    4.1898 C   0  0  0  0  0  0  0  0  0  0  0  0
   -3.6309    0.0551    4.1305 C   0  0  0  0  0  0  0  0  0  0  0  0
   -2.2324   -0.0081    4.5160 N   0  0  0  0  0  0  0  0  0  0  0  0
   -1.7224    0.0042    5.8246 C   0  0  0  0  0  0  0  0  0  0  0  0
   -2.4113    0.0085    7.0383 C   0  0  0  0  0  0  0  0  0  0  0  0
   -1.6606    0.0080    8.2168 C   0  0  0  0  0  0  0  0  0  0  0  0
   -0.2603    0.0047    8.1658 C   0  0  0  0  0  0  0  0  0  0  0  0
    0.4455    0.0017    6.9679 C   0  0  0  0  0  0  0  0  0  0  0  0
   -0.2984    0.0022    5.7846 C   0  0  0  0  0  0  0  0  0  0  0  0
    0.0511   -0.0009    4.3794 C   0  0  0  0  0  0  0  0  0  0  0  0
   -1.1782   -0.0013    3.6472 C   0  0  0  0  0  0  0  0  0  0  0  0
   -1.2196    0.0021    2.3293 N   0  0  0  0  0  0  0  0  0  0  0  0
    0.0000    0.0000    1.7632 C   0  0  0  0  0  0  0  0  0  0  0  0
    0.0000    0.0000    0.0000 S   0  0  0  0  0  0  0  0  0  0  0  0
    1.1896    0.0000    2.4185 N   0  0  0  0  0  0  0  0  0  0  0  0
    1.2111   -0.0000    3.7416 N   0  0  0  0  0  0  0  0  0  0  0  0
    0.4190    0.0056    9.3234 F   0  0  0  0  0  0  0  0  0  0  0  0
   -5.8256    1.1325    2.7624 H   0  0  0  0  0  0  0  0  0  0  0  0
   -6.0801    2.5324    3.8285 H   0  0  0  0  0  0  0  0  0  0  0  0
   -6.2967    0.8844    4.4595 H   0  0  0  0  0  0  0  0  0  0  0  0
   -4.0808    1.8744    5.2088 H   0  0  0  0  0  0  0  0  0  0  0  0
   -3.6146    2.1168    3.5218 H   0  0  0  0  0  0  0  0  0  0  0  0
   -4.2019   -0.6271    4.7820 H   0  0  0  0  0  0  0  0  0  0  0  0
   -3.6939   -0.3372    3.1048 H   0  0  0  0  0  0  0  0  0  0  0  0
   -3.5012    0.0139    7.0780 H   0  0  0  0  0  0  0  0  0  0  0  0
   -2.1473    0.0118    9.1934 H   0  0  0  0  0  0  0  0  0  0  0  0
    1.5358   -0.0010    6.9609 H   0  0  0  0  0  0  0  0  0  0  0  0
    2.2873    0.0021   -0.3476 Au  0  0  0  0  0  0  0  0  0  0  0  0
  1 20  1  0  0  0  0
  1  2  1  0  0  0  0
  1 21  1  0  0  0  0
  2 22  1  0  0  0  0
  3  2  1  0  0  0  0
  3  4  1  0  0  0  0
  3 24  1  0  0  0  0
  4  5  1  0  0  0  0
  5  6  1  0  0  0  0
  6 26  1  0  0  0  0
  6  7  2  0  0  0  0
  7 27  1  0  0  0  0
  8  7  1  0  0  0  0
  8 18  1  0  0  0  0
  9  8  2  0  0  0  0
 10  5  2  0  0  0  0
 10  9  1  0  0  0  0
 11 10  1  0  0  0  0
 12 11  1  0  0  0  0
 12  4  1  0  0  0  0
 13 12  2  0  0  0  0
 14 13  2  0  0  0  0
 14 16  2  0  0  0  0
 15 14  1  0  0  0  0
 16 17  1  0  0  0  0
 17 11  2  0  0  0  0
 19  1  1  0  0  0  0
 23  2  1  0  0  0  0
 25  3  1  0  0  0  0
 28  9  1  0  0  0  0
 29 15  1  0  0  0  0
M  END
