17083018.xyz
 OpenBabel07262113433D
OC(=O)c1cc(nc2c1c(=O)nc(n2c1cccc(c1C)C)S)C1CC1
 43 46  0  0  1  0  0  0  0  0999 V2000
    2.3403   -1.5413    6.2725 O   0  0  0  0  0  0  0  0  0  0  0  0
    1.6992   -0.4120    6.5983 C   0  0  0  0  0  0  0  0  0  0  0  0
    2.0795    0.3736    7.4269 O   0  0  0  0  0  0  0  0  0  0  0  0
    0.3743   -0.2976    5.8916 C   0  0  0  0  0  0  0  0  0  0  0  0
   -0.7925   -0.3163    6.6493 C   0  0  0  0  0  0  0  0  0  0  0  0
   -2.0360   -0.2155    5.9972 C   0  0  0  0  0  0  0  0  0  0  0  0
   -2.1236   -0.1106    4.6685 N   0  0  0  0  0  0  0  0  0  0  0  0
   -1.0079   -0.0792    3.9477 C   0  0  0  0  0  0  0  0  0  0  0  0
    0.2857   -0.1486    4.4966 C   0  0  1  0  0  0  0  0  0  0  0  0
    1.4647    0.0573    3.6196 C   0  0  0  0  0  0  0  0  0  0  0  0
    2.5782    0.2615    4.0642 O   0  0  0  0  0  0  0  0  0  0  0  0
    1.1978    0.0000    2.2564 N   0  0  0  0  0  0  0  0  0  0  0  0
   -0.0000   -0.0000    1.7788 C   0  0  0  0  0  0  0  0  0  0  0  0
   -1.1515    0.0370    2.5560 N   0  0  0  0  0  0  0  0  0  0  0  0
   -2.4747    0.2503    2.0366 C   0  0  0  0  0  0  0  0  0  0  0  0
   -2.8394    1.5483    1.6781 C   0  0  0  0  0  0  0  0  0  0  0  0
   -4.1037    1.7823    1.1421 C   0  0  0  0  0  0  0  0  0  0  0  0
   -4.9931    0.7180    0.9874 C   0  0  0  0  0  0  0  0  0  0  0  0
   -4.6481   -0.5875    1.3732 C   0  0  0  0  0  0  0  0  0  0  0  0
   -3.3613   -0.8366    1.9081 C   0  0  0  0  0  0  0  0  0  0  0  0
   -2.9673   -2.2199    2.3492 C   0  0  0  0  0  0  0  0  0  0  0  0
   -5.6507   -1.7062    1.2489 C   0  0  0  0  0  0  0  0  0  0  0  0
    0.0000    0.0000    0.0000 S   0  0  0  0  0  0  0  0  0  0  0  0
   -3.3050   -0.2166    6.7646 C   0  0  0  0  0  0  0  0  0  0  0  0
   -4.5479   -0.8333    6.1483 C   0  0  0  0  0  0  0  0  0  0  0  0
   -4.4553    0.6503    6.2820 C   0  0  0  0  0  0  0  0  0  0  0  0
    3.2093   -1.5110    6.7089 H   0  0  0  0  0  0  0  0  0  0  0  0
   -0.7426   -0.4048    7.7352 H   0  0  0  0  0  0  0  0  0  0  0  0
   -2.1172    2.3563    1.8019 H   0  0  0  0  0  0  0  0  0  0  0  0
   -4.3958    2.7913    0.8447 H   0  0  0  0  0  0  0  0  0  0  0  0
   -5.9875    0.9001    0.5723 H   0  0  0  0  0  0  0  0  0  0  0  0
   -1.8816   -2.3144    2.4703 H   0  0  0  0  0  0  0  0  0  0  0  0
   -3.4300   -2.4603    3.3205 H   0  0  0  0  0  0  0  0  0  0  0  0
   -3.2963   -2.9841    1.6308 H   0  0  0  0  0  0  0  0  0  0  0  0
   -5.2811   -2.5221    0.6062 H   0  0  0  0  0  0  0  0  0  0  0  0
   -5.8687   -2.1563    2.2315 H   0  0  0  0  0  0  0  0  0  0  0  0
   -6.5980   -1.3455    0.8250 H   0  0  0  0  0  0  0  0  0  0  0  0
   -2.0591   -0.7130   -0.7714 Au  0  0  0  0  0  0  0  0  0  0  0  0
   -3.1812   -0.3214    7.8449 H   0  0  0  0  0  0  0  0  0  0  0  0
   -5.2151   -1.3875    6.8136 H   0  0  0  0  0  0  0  0  0  0  0  0
   -4.4254   -1.2525    5.1468 H   0  0  0  0  0  0  0  0  0  0  0  0
   -4.2672    1.2245    5.3714 H   0  0  0  0  0  0  0  0  0  0  0  0
   -5.0568    1.1535    7.0433 H   0  0  0  0  0  0  0  0  0  0  0  0
  1  2  1  0  0  0  0
  1 27  1  0  0  0  0
  2  3  2  0  0  0  0
  4  2  1  0  0  0  0
  4  5  2  0  0  0  0
  5 28  1  0  0  0  0
  6  5  1  0  0  0  0
  6 24  1  0  0  0  0
  7  6  2  0  0  0  0
  8  9  1  0  0  0  0
  8  7  2  0  0  0  0
  9 10  1  1  0  0  0
  9  4  1  0  0  0  0
 10 11  2  0  0  0  0
 12 10  2  0  0  0  0
 13 12  2  0  0  0  0
 13 14  1  0  0  0  0
 14  8  1  0  0  0  0
 15 14  1  0  0  0  0
 16 29  1  0  0  0  0
 16 15  2  0  0  0  0
 17 16  1  0  0  0  0
 18 17  2  0  0  0  0
 18 19  1  0  0  0  0
 19 20  2  0  0  0  0
 20 15  1  0  0  0  0
 20 21  1  0  0  0  0
 21 32  1  0  0  0  0
 21 33  1  0  0  0  0
 22 19  1  0  0  0  0
 22 36  1  0  0  0  0
 23 13  1  0  0  0  0
 24 39  1  0  0  0  0
 25 26  1  0  0  0  0
 25 24  1  0  0  0  0
 25 40  1  0  0  0  0
 26 24  1  0  0  0  0
 26 43  1  0  0  0  0
 30 17  1  0  0  0  0
 31 18  1  0  0  0  0
 34 21  1  0  0  0  0
 35 22  1  0  0  0  0
 37 22  1  0  0  0  0
 38 23  1  0  0  0  0
 41 25  1  0  0  0  0
 42 26  1  0  0  0  0
M  RAD  1   9   2
M  END
