17082696.xyz
 OpenBabel07262113433D
Cc1cccc(c1)n1c(S)nc(=O)c2c1nc(C)cc2C(=O)O
 36 38  0  0  1  0  0  0  0  0999 V2000
   -4.6363   -2.6803   -0.1378 C   0  0  0  0  0  0  0  0  0  0  0  0
   -4.1013   -1.3458    0.3146 C   0  0  0  0  0  0  0  0  0  0  0  0
   -4.7078   -0.1437   -0.0785 C   0  0  0  0  0  0  0  0  0  0  0  0
   -4.1926    1.0924    0.3220 C   0  0  0  0  0  0  0  0  0  0  0  0
   -3.0556    1.1520    1.1258 C   0  0  0  0  0  0  0  0  0  0  0  0
   -2.4453   -0.0412    1.5177 C   0  0  0  0  0  0  0  0  0  0  0  0
   -2.9617   -1.2761    1.1270 C   0  0  0  0  0  0  0  0  0  0  0  0
   -1.2604   -0.0005    2.3377 N   0  0  0  0  0  0  0  0  0  0  0  0
    0.0000    0.0000    1.7741 C   0  0  0  0  0  0  0  0  0  0  0  0
    0.0000    0.0000    0.0000 S   0  0  0  0  0  0  0  0  0  0  0  0
    1.1099   -0.0000    2.4471 N   0  0  0  0  0  0  0  0  0  0  0  0
    1.1227   -0.0070    3.8371 C   0  0  0  0  0  0  0  0  0  0  0  0
    2.1563   -0.1085    4.4741 O   0  0  0  0  0  0  0  0  0  0  0  0
   -0.2017    0.1019    4.4996 C   0  0  1  0  0  0  0  0  0  0  0  0
   -1.3808    0.0602    3.7306 C   0  0  0  0  0  0  0  0  0  0  0  0
   -2.6088    0.0759    4.2367 N   0  0  0  0  0  0  0  0  0  0  0  0
   -2.7526    0.1306    5.5639 C   0  0  0  0  0  0  0  0  0  0  0  0
   -4.1619    0.1351    6.0867 C   0  0  0  0  0  0  0  0  0  0  0  0
   -1.6444    0.1852    6.4281 C   0  0  0  0  0  0  0  0  0  0  0  0
   -0.3584    0.1852    5.8913 C   0  0  0  0  0  0  0  0  0  0  0  0
    0.8225    0.2463    6.8248 C   0  0  0  0  0  0  0  0  0  0  0  0
    1.1191   -0.6432    7.5788 O   0  0  0  0  0  0  0  0  0  0  0  0
    1.4208    1.4439    6.7914 O   0  0  0  0  0  0  0  0  0  0  0  0
   -4.6144   -3.4195    0.6778 H   0  0  0  0  0  0  0  0  0  0  0  0
   -4.0267   -3.0882   -0.9623 H   0  0  0  0  0  0  0  0  0  0  0  0
   -5.6715   -2.5985   -0.4995 H   0  0  0  0  0  0  0  0  0  0  0  0
   -5.6003   -0.1772   -0.7087 H   0  0  0  0  0  0  0  0  0  0  0  0
   -4.6834    2.0154    0.0055 H   0  0  0  0  0  0  0  0  0  0  0  0
   -2.6361    2.1055    1.4496 H   0  0  0  0  0  0  0  0  0  0  0  0
   -2.4605   -2.1881    1.4581 H   0  0  0  0  0  0  0  0  0  0  0  0
    2.3077   -0.0108   -0.2560 Au  0  0  0  0  0  0  0  0  0  0  0  0
   -4.7067    1.0067    5.6905 H   0  0  0  0  0  0  0  0  0  0  0  0
   -4.1946    0.1618    7.1842 H   0  0  0  0  0  0  0  0  0  0  0  0
   -4.6957   -0.7607    5.7325 H   0  0  0  0  0  0  0  0  0  0  0  0
   -1.7895    0.2293    7.5084 H   0  0  0  0  0  0  0  0  0  0  0  0
    2.2017    1.3852    7.3689 H   0  0  0  0  0  0  0  0  0  0  0  0
  1  2  1  0  0  0  0
  1 24  1  0  0  0  0
  2  7  1  0  0  0  0
  3  2  2  0  0  0  0
  3  4  1  0  0  0  0
  4  5  2  0  0  0  0
  5 29  1  0  0  0  0
  5  6  1  0  0  0  0
  6  8  1  0  0  0  0
  7 30  1  0  0  0  0
  7  6  2  0  0  0  0
  8 15  1  0  0  0  0
  9  8  1  0  0  0  0
  9 11  2  0  0  0  0
 10  9  1  0  0  0  0
 11 12  2  0  0  0  0
 12 13  2  0  0  0  0
 12 14  1  0  0  0  0
 14 15  1  1  0  0  0
 14 20  1  0  0  0  0
 15 16  2  0  0  0  0
 16 17  2  0  0  0  0
 17 18  1  0  0  0  0
 17 19  1  0  0  0  0
 18 33  1  0  0  0  0
 19 35  1  0  0  0  0
 20 19  2  0  0  0  0
 20 21  1  0  0  0  0
 21 22  2  0  0  0  0
 23 21  1  0  0  0  0
 23 36  1  0  0  0  0
 25  1  1  0  0  0  0
 26  1  1  0  0  0  0
 27  3  1  0  0  0  0
 28  4  1  0  0  0  0
 31 10  1  0  0  0  0
 32 18  1  0  0  0  0
 34 18  1  0  0  0  0
M  RAD  1  14   2
M  END
