17081806.xyz
 OpenBabel07262113433D
FC(c1cc(nc2c1c(=O)nc(n2C)S)C12CC3CC(C2)CC(C1)C3)F
 47 51  0  0  1  0  0  0  0  0999 V2000
    1.1258   -0.6695    8.0138 F   0  0  0  0  0  0  0  0  0  0  0  0
    1.3935   -0.6243    6.6768 C   0  0  0  0  0  0  0  0  0  0  0  0
    0.1021   -0.4749    5.8944 C   0  0  0  0  0  0  0  0  0  0  0  0
   -1.1186   -0.6312    6.5437 C   0  0  0  0  0  0  0  0  0  0  0  0
   -2.3161   -0.5342    5.8130 C   0  0  0  0  0  0  0  0  0  0  0  0
   -2.3038   -0.3087    4.4965 N   0  0  0  0  0  0  0  0  0  0  0  0
   -1.1408   -0.1665    3.8671 C   0  0  0  0  0  0  0  0  0  0  0  0
    0.1160   -0.2232    4.5096 C   0  0  1  0  0  0  0  0  0  0  0  0
    1.3399    0.0609    3.7154 C   0  0  0  0  0  0  0  0  0  0  0  0
    2.4209    0.3062    4.2192 O   0  0  0  0  0  0  0  0  0  0  0  0
    1.1682    0.0000    2.3351 N   0  0  0  0  0  0  0  0  0  0  0  0
   -0.0000   -0.0000    1.7918 C   0  0  0  0  0  0  0  0  0  0  0  0
   -1.1912    0.0545    2.4867 N   0  0  0  0  0  0  0  0  0  0  0  0
   -2.4894    0.3225    1.8724 C   0  0  0  0  0  0  0  0  0  0  0  0
    0.0000    0.0000    0.0000 S   0  0  0  0  0  0  0  0  0  0  0  0
   -3.6911   -0.6831    6.4449 C   0  0  1  0  0  0  0  0  0  0  0  0
   -3.6350   -0.9616    7.9611 C   0  0  0  0  0  0  0  0  0  0  0  0
   -5.0552   -1.1011    8.5360 C   0  0  1  0  0  0  0  0  0  0  0  0
   -5.8361    0.2025    8.2990 C   0  0  0  0  0  0  0  0  0  0  0  0
   -5.9190    0.4808    6.7888 C   0  0  1  0  0  0  0  0  0  0  0  0
   -4.5005    0.6206    6.2148 C   0  0  0  0  0  0  0  0  0  0  0  0
   -6.6400   -0.6849    6.0900 C   0  0  0  0  0  0  0  0  0  0  0  0
   -5.8623   -1.9902    6.3318 C   0  0  1  0  0  0  0  0  0  0  0  0
   -4.4438   -1.8530    5.7577 C   0  0  0  0  0  0  0  0  0  0  0  0
   -5.7794   -2.2671    7.8422 C   0  0  0  0  0  0  0  0  0  0  0  0
    1.9786   -1.8038    6.3398 F   0  0  0  0  0  0  0  0  0  0  0  0
    2.1040    0.1878    6.4782 H   0  0  0  0  0  0  0  0  0  0  0  0
   -1.1267   -0.8187    7.6133 H   0  0  0  0  0  0  0  0  0  0  0  0
   -3.0830    0.9346    2.5604 H   0  0  0  0  0  0  0  0  0  0  0  0
   -2.3282    0.8498    0.9275 H   0  0  0  0  0  0  0  0  0  0  0  0
   -3.0431   -0.6105    1.6820 H   0  0  0  0  0  0  0  0  0  0  0  0
   -1.3292   -1.8021   -0.5540 Au  0  0  0  0  0  0  0  0  0  0  0  0
   -3.1069   -0.1417    8.4756 H   0  0  0  0  0  0  0  0  0  0  0  0
   -3.0646   -1.8854    8.1534 H   0  0  0  0  0  0  0  0  0  0  0  0
   -4.9845   -1.2996    9.6180 H   0  0  0  0  0  0  0  0  0  0  0  0
   -6.8494    0.1198    8.7267 H   0  0  0  0  0  0  0  0  0  0  0  0
   -5.3374    1.0421    8.8123 H   0  0  0  0  0  0  0  0  0  0  0  0
   -6.4723    1.4184    6.6130 H   0  0  0  0  0  0  0  0  0  0  0  0
   -3.9750    1.4647    6.6929 H   0  0  0  0  0  0  0  0  0  0  0  0
   -4.5380    0.8310    5.1354 H   0  0  0  0  0  0  0  0  0  0  0  0
   -7.6688   -0.7798    6.4764 H   0  0  0  0  0  0  0  0  0  0  0  0
   -6.7187   -0.4866    5.0076 H   0  0  0  0  0  0  0  0  0  0  0  0
   -6.3752   -2.8263    5.8279 H   0  0  0  0  0  0  0  0  0  0  0  0
   -3.8775   -2.7878    5.9084 H   0  0  0  0  0  0  0  0  0  0  0  0
   -4.4778   -1.6657    4.6741 H   0  0  0  0  0  0  0  0  0  0  0  0
   -6.7916   -2.3879    8.2633 H   0  0  0  0  0  0  0  0  0  0  0  0
   -5.2394   -3.2116    8.0251 H   0  0  0  0  0  0  0  0  0  0  0  0
  2  1  1  0  0  0  0
  3  4  2  0  0  0  0
  3  2  1  0  0  0  0
  4 28  1  0  0  0  0
  5  4  1  0  0  0  0
  6  5  2  0  0  0  0
  7  6  2  0  0  0  0
  7  8  1  0  0  0  0
  8  9  1  1  0  0  0
  8  3  1  0  0  0  0
  9 10  2  0  0  0  0
 11  9  2  0  0  0  0
 12 11  2  0  0  0  0
 12 13  1  0  0  0  0
 13  7  1  0  0  0  0
 14 13  1  0  0  0  0
 14 29  1  0  0  0  0
 15 12  1  0  0  0  0
 16  5  1  6  0  0  0
 16 17  1  0  0  0  0
 17 34  1  0  0  0  0
 17 33  1  0  0  0  0
 17 18  1  0  0  0  0
 18 35  1  1  0  0  0
 19 18  1  0  0  0  0
 19 36  1  0  0  0  0
 19 37  1  0  0  0  0
 20 38  1  6  0  0  0
 20 19  1  0  0  0  0
 21 16  1  0  0  0  0
 21 39  1  0  0  0  0
 21 20  1  0  0  0  0
 22 23  1  0  0  0  0
 22 41  1  0  0  0  0
 22 20  1  0  0  0  0
 23 43  1  6  0  0  0
 23 25  1  0  0  0  0
 24 44  1  0  0  0  0
 24 23  1  0  0  0  0
 24 16  1  0  0  0  0
 25 47  1  0  0  0  0
 25 46  1  0  0  0  0
 25 18  1  0  0  0  0
 26  2  1  0  0  0  0
 27  2  1  0  0  0  0
 30 14  1  0  0  0  0
 31 14  1  0  0  0  0
 32 15  1  0  0  0  0
 40 21  1  0  0  0  0
 42 22  1  0  0  0  0
 45 24  1  0  0  0  0
M  RAD  1   8   2
M  END
