17082560.xyz
 OpenBabel07262113433D
CCn1c(S)nc(=O)c2c1nc(cc2C(=O)O)c1ccco1
 33 35  0  0  1  0  0  0  0  0999 V2000
   -2.9673   -1.4751    1.3380 C   0  0  0  0  0  0  0  0  0  0  0  0
   -2.4957   -0.0527    1.6127 C   0  0  0  0  0  0  0  0  0  0  0  0
   -1.2384   -0.0106    2.3792 N   0  0  0  0  0  0  0  0  0  0  0  0
    0.0000    0.0000    1.7775 C   0  0  0  0  0  0  0  0  0  0  0  0
    0.0000    0.0000    0.0000 S   0  0  0  0  0  0  0  0  0  0  0  0
    1.1360   -0.0000    2.4133 N   0  0  0  0  0  0  0  0  0  0  0  0
    1.2049   -0.0272    3.7992 C   0  0  0  0  0  0  0  0  0  0  0  0
    2.2682   -0.0841    4.3936 O   0  0  0  0  0  0  0  0  0  0  0  0
   -0.0946   -0.0075    4.5090 C   0  0  1  0  0  0  0  0  0  0  0  0
   -1.2996   -0.0425    3.7763 C   0  0  0  0  0  0  0  0  0  0  0  0
   -2.5038   -0.1008    4.3343 N   0  0  0  0  0  0  0  0  0  0  0  0
   -2.5894   -0.1270    5.6711 C   0  0  0  0  0  0  0  0  0  0  0  0
   -1.4517   -0.0829    6.5022 C   0  0  0  0  0  0  0  0  0  0  0  0
   -0.1965   -0.0085    5.9102 C   0  0  0  0  0  0  0  0  0  0  0  0
    1.0233    0.0371    6.7950 C   0  0  0  0  0  0  0  0  0  0  0  0
    1.4032   -0.8981    7.4490 O   0  0  0  0  0  0  0  0  0  0  0  0
    1.5503    1.2669    6.8487 O   0  0  0  0  0  0  0  0  0  0  0  0
   -3.9281   -0.2068    6.2315 C   0  0  0  0  0  0  0  0  0  0  0  0
   -5.1724   -0.2746    5.6492 C   0  0  0  0  0  0  0  0  0  0  0  0
   -6.1148   -0.3399    6.7207 C   0  0  0  0  0  0  0  0  0  0  0  0
   -5.3780   -0.3071    7.8750 C   0  0  0  0  0  0  0  0  0  0  0  0
   -4.0578   -0.2267    7.5897 O   0  0  0  0  0  0  0  0  0  0  0  0
   -3.9009   -1.4545    0.7544 H   0  0  0  0  0  0  0  0  0  0  0  0
   -3.1627   -2.0040    2.2824 H   0  0  0  0  0  0  0  0  0  0  0  0
   -2.2158   -2.0355    0.7619 H   0  0  0  0  0  0  0  0  0  0  0  0
   -3.2410    0.4921    2.2036 H   0  0  0  0  0  0  0  0  0  0  0  0
   -2.3277    0.5025    0.6797 H   0  0  0  0  0  0  0  0  0  0  0  0
    2.3180    0.0407   -0.2145 Au  0  0  0  0  0  0  0  0  0  0  0  0
   -1.5645   -0.1068    7.5853 H   0  0  0  0  0  0  0  0  0  0  0  0
    2.3583    1.2039    7.3871 H   0  0  0  0  0  0  0  0  0  0  0  0
   -5.3666   -0.2777    4.5805 H   0  0  0  0  0  0  0  0  0  0  0  0
   -7.1979   -0.4034    6.6466 H   0  0  0  0  0  0  0  0  0  0  0  0
   -5.6399   -0.3323    8.9293 H   0  0  0  0  0  0  0  0  0  0  0  0
  1  2  1  0  0  0  0
  1 24  1  0  0  0  0
  2 26  1  0  0  0  0
  2  3  1  0  0  0  0
  3 10  1  0  0  0  0
  4  3  1  0  0  0  0
  4  6  2  0  0  0  0
  5  4  1  0  0  0  0
  6  7  2  0  0  0  0
  7  8  2  0  0  0  0
  7  9  1  0  0  0  0
  9 10  1  6  0  0  0
  9 14  1  0  0  0  0
 10 11  2  0  0  0  0
 11 12  2  0  0  0  0
 12 18  1  0  0  0  0
 12 13  1  0  0  0  0
 13 29  1  0  0  0  0
 14 13  2  0  0  0  0
 14 15  1  0  0  0  0
 15 17  1  0  0  0  0
 15 16  2  0  0  0  0
 17 30  1  0  0  0  0
 18 22  1  0  0  0  0
 19 18  2  0  0  0  0
 19 20  1  0  0  0  0
 20 21  2  0  0  0  0
 21 33  1  0  0  0  0
 22 21  1  0  0  0  0
 23  1  1  0  0  0  0
 25  1  1  0  0  0  0
 27  2  1  0  0  0  0
 28  5  1  0  0  0  0
 31 19  1  0  0  0  0
 32 20  1  0  0  0  0
M  RAD  1   9   2
M  END
