17081586.xyz
 OpenBabel07262113433D
Fc1ccc(cc1)c1cc(C(F)F)c2c(n1)n(C1CC1)c(nc2=O)S
 37 40  0  0  1  0  0  0  0  0999 V2000
    7.9412    1.9229    7.1908 F   0  0  0  0  0  0  0  0  0  0  0  0
    6.6844    1.6947    6.7939 C   0  0  0  0  0  0  0  0  0  0  0  0
    6.4242    1.4846    5.4406 C   0  0  0  0  0  0  0  0  0  0  0  0
    5.1139    1.2467    5.0359 C   0  0  0  0  0  0  0  0  0  0  0  0
    4.0574    1.2199    5.9657 C   0  0  0  0  0  0  0  0  0  0  0  0
    4.3578    1.4331    7.3231 C   0  0  0  0  0  0  0  0  0  0  0  0
    5.6653    1.6699    7.7434 C   0  0  0  0  0  0  0  0  0  0  0  0
    2.6761    0.9624    5.4898 C   0  0  0  0  0  0  0  0  0  0  0  0
    1.5477    1.0992    6.3222 C   0  0  0  0  0  0  0  0  0  0  0  0
    0.2752    0.8332    5.8277 C   0  0  0  0  0  0  0  0  0  0  0  0
   -0.8789    1.0251    6.7964 C   0  0  0  0  0  0  0  0  0  0  0  0
   -1.8185    1.8544    6.2876 F   0  0  0  0  0  0  0  0  0  0  0  0
   -1.4529   -0.1533    7.1267 F   0  0  0  0  0  0  0  0  0  0  0  0
    0.1326    0.4313    4.4831 C   0  0  1  0  0  0  0  0  0  0  0  0
    1.3249    0.3526    3.7270 C   0  0  0  0  0  0  0  0  0  0  0  0
    2.5358    0.6057    4.2110 N   0  0  0  0  0  0  0  0  0  0  0  0
    1.2496   -0.0000    2.3715 N   0  0  0  0  0  0  0  0  0  0  0  0
    2.4640   -0.1649    1.6034 C   0  0  0  0  0  0  0  0  0  0  0  0
    3.4599   -1.2019    2.0333 C   0  0  0  0  0  0  0  0  0  0  0  0
    2.6490   -1.4246    0.7914 C   0  0  0  0  0  0  0  0  0  0  0  0
   -0.0000    0.0000    1.7752 C   0  0  0  0  0  0  0  0  0  0  0  0
   -1.1154    0.0338    2.4312 N   0  0  0  0  0  0  0  0  0  0  0  0
   -1.1574    0.0708    3.8238 C   0  0  0  0  0  0  0  0  0  0  0  0
   -2.1810   -0.1560    4.4330 O   0  0  0  0  0  0  0  0  0  0  0  0
    0.0000    0.0000    0.0000 S   0  0  0  0  0  0  0  0  0  0  0  0
    7.2492    1.5117    4.7267 H   0  0  0  0  0  0  0  0  0  0  0  0
    4.8803    1.0779    3.9850 H   0  0  0  0  0  0  0  0  0  0  0  0
    3.5707    1.4024    8.0771 H   0  0  0  0  0  0  0  0  0  0  0  0
    5.9076    1.8312    8.7949 H   0  0  0  0  0  0  0  0  0  0  0  0
    1.6590    1.4300    7.3541 H   0  0  0  0  0  0  0  0  0  0  0  0
   -0.5036    1.4838    7.7296 H   0  0  0  0  0  0  0  0  0  0  0  0
    2.8567    0.7708    1.1918 H   0  0  0  0  0  0  0  0  0  0  0  0
    3.2105   -1.7929    2.9168 H   0  0  0  0  0  0  0  0  0  0  0  0
    4.5170   -0.9387    1.9510 H   0  0  0  0  0  0  0  0  0  0  0  0
    3.1152   -1.3156   -0.1905 H   0  0  0  0  0  0  0  0  0  0  0  0
    1.8506   -2.1685    0.8299 H   0  0  0  0  0  0  0  0  0  0  0  0
   -2.3095    0.0769   -0.2407 Au  0  0  0  0  0  0  0  0  0  0  0  0
  2  1  1  0  0  0  0
  2  7  2  0  0  0  0
  3  2  1  0  0  0  0
  4  3  2  0  0  0  0
  4  5  1  0  0  0  0
  5  6  2  0  0  0  0
  6  7  1  0  0  0  0
  6 28  1  0  0  0  0
  7 29  1  0  0  0  0
  8  5  1  0  0  0  0
  8  9  1  0  0  0  0
  9 30  1  0  0  0  0
 10  9  2  0  0  0  0
 10 11  1  0  0  0  0
 11 13  1  0  0  0  0
 11 31  1  0  0  0  0
 12 11  1  0  0  0  0
 14 15  1  1  0  0  0
 14 10  1  0  0  0  0
 15 16  2  0  0  0  0
 16  8  2  0  0  0  0
 17 15  1  0  0  0  0
 18 19  1  0  0  0  0
 18 17  1  0  0  0  0
 19 33  1  0  0  0  0
 20 36  1  0  0  0  0
 20 18  1  0  0  0  0
 20 19  1  0  0  0  0
 21 17  1  0  0  0  0
 21 22  2  0  0  0  0
 22 23  2  0  0  0  0
 23 24  2  0  0  0  0
 23 14  1  0  0  0  0
 25 21  1  0  0  0  0
 26  3  1  0  0  0  0
 27  4  1  0  0  0  0
 32 18  1  0  0  0  0
 34 19  1  0  0  0  0
 35 20  1  0  0  0  0
 37 25  1  0  0  0  0
M  RAD  1  14   2
M  END
