17254231.xyz
 OpenBabel07262113433D
Sc1ccc(c(c1)F)Br
 13 13  0  0  0  0  0  0  0  0999 V2000
    0.0000    0.0000    0.0000 S   0  0  0  0  0  0  0  0  0  0  0  0
   -0.0000    0.0000    1.7819 C   0  0  0  0  0  0  0  0  0  0  0  0
    1.2132    0.0000    2.4913 C   0  0  0  0  0  0  0  0  0  0  0  0
    1.2158    0.0812    3.8830 C   0  0  0  0  0  0  0  0  0  0  0  0
    0.0088    0.1631    4.5843 C   0  0  0  0  0  0  0  0  0  0  0  0
   -1.1989    0.1665    3.8744 C   0  0  0  0  0  0  0  0  0  0  0  0
   -1.2110    0.0884    2.4867 C   0  0  0  0  0  0  0  0  0  0  0  0
   -2.3558    0.2466    4.5323 F   0  0  0  0  0  0  0  0  0  0  0  0
   -0.0151    0.2699    6.4724 Br  0  0  0  0  0  0  0  0  0  0  0  0
   -0.1538   -2.2415   -0.5092 Au  0  0  0  0  0  0  0  0  0  0  0  0
    2.1538   -0.0656    1.9428 H   0  0  0  0  0  0  0  0  0  0  0  0
    2.1555    0.0810    4.4372 H   0  0  0  0  0  0  0  0  0  0  0  0
   -2.1674    0.0942    1.9626 H   0  0  0  0  0  0  0  0  0  0  0  0
  1  2  1  0  0  0  0
  2  7  2  0  0  0  0
  2  3  1  0  0  0  0
  3  4  2  0  0  0  0
  4 12  1  0  0  0  0
  4  5  1  0  0  0  0
  5  9  1  0  0  0  0
  6  8  1  0  0  0  0
  6  5  2  0  0  0  0
  7  6  1  0  0  0  0
 10  1  1  0  0  0  0
 11  3  1  0  0  0  0
 13  7  1  0  0  0  0
M  END
