17481-19-5.xyz
 OpenBabel08132117233D
Cl[CH2][CH2][CH2]S
 12 11  0  0  0  0  0  0  0  0999 V2000
    3.2601    0.0000    4.3925 Cl  0  0  0  0  0  0  0  0  0  0  0  0
    0.0000    0.0000    0.0000 S   0  0  0  0  0  0  0  0  0  0  0  0
    1.4576    0.0000    2.3118 C   0  0  0  0  0  0  0  0  0  0  0  0
    0.0000    0.0000    1.8430 C   0  0  0  0  0  0  0  0  0  0  0  0
    1.5437    0.0000    3.8315 C   0  0  0  0  0  0  0  0  0  0  0  0
    1.9809   -0.8855    1.9169 H   0  0  0  0  0  0  0  0  0  0  0  0
    1.9809    0.8855    1.9169 H   0  0  0  0  0  0  0  0  0  0  0  0
   -0.5250    0.8921    2.2150 H   0  0  0  0  0  0  0  0  0  0  0  0
   -0.5250   -0.8921    2.2150 H   0  0  0  0  0  0  0  0  0  0  0  0
    1.0682    0.8919    4.2633 H   0  0  0  0  0  0  0  0  0  0  0  0
    1.0682   -0.8919    4.2633 H   0  0  0  0  0  0  0  0  0  0  0  0
   -2.2260    0.0000   -0.5333 Au  0  0  0  0  0  0  0  0  0  0  0  0
  2  4  1  0  0  0  0
  3  5  1  0  0  0  0
  4  8  1  0  0  0  0
  4  9  1  0  0  0  0
  4  3  1  0  0  0  0
  5 10  1  0  0  0  0
  5 11  1  0  0  0  0
  5  1  1  0  0  0  0
  6  3  1  0  0  0  0
  7  3  1  0  0  0  0
 12  2  1  0  0  0  0
M  END
