181610889.xyz
 OpenBabel07262113433D
O=C(c1ccc2c(c1)[nH]c(n2)S)N/N=C\c1cc(Cl)c(c(c1)Cl)O
 34 36  0  0  1  0  0  0  0  0999 V2000
    3.0488    0.3069    7.3663 O   0  0  0  0  0  0  0  0  0  0  0  0
    1.8691    0.0096    7.3974 C   0  0  0  0  0  0  0  0  0  0  0  0
    1.0025   -0.0055    6.1785 C   0  0  1  0  0  0  0  0  0  0  0  0
   -0.4126    0.0091    6.2325 C   0  0  0  0  0  0  0  0  0  0  0  0
   -1.1899    0.0100    5.0775 C   0  0  0  0  0  0  0  0  0  0  0  0
   -0.5364   -0.0010    3.8375 C   0  0  0  0  0  0  0  0  0  0  0  0
    0.8867   -0.0003    3.7974 C   0  0  0  0  0  0  0  0  0  0  0  0
    1.6696    0.0039    4.9442 C   0  0  0  0  0  0  0  0  0  0  0  0
    1.1936   -0.0000    2.4453 N   0  0  0  0  0  0  0  0  0  0  0  0
    0.0000    0.0000    1.7550 C   0  0  0  0  0  0  0  0  0  0  0  0
   -1.0475   -0.0010    2.5542 N   0  0  0  0  0  0  0  0  0  0  0  0
    0.0000    0.0000    0.0000 S   0  0  0  0  0  0  0  0  0  0  0  0
    1.2158   -0.3352    8.5812 N   0  0  0  0  0  0  0  0  0  0  0  0
    1.8702   -0.6155    9.7586 N   0  0  0  0  0  0  0  0  0  0  0  0
    2.7030    0.2219   10.2651 C   0  0  0  0  0  0  0  0  0  0  0  0
    3.0659    1.6103    9.9434 C   0  0  0  0  0  0  0  0  0  0  0  0
    4.2509    2.1156   10.5015 C   0  0  0  0  0  0  0  0  0  0  0  0
    4.6234    3.4349   10.2769 C   0  0  0  0  0  0  0  0  0  0  0  0
    6.1180    4.0701   10.9478 Cl  0  0  0  0  0  0  0  0  0  0  0  0
    3.8325    4.3181    9.5194 C   0  0  0  0  0  0  0  0  0  0  0  0
    2.6298    3.8050    8.9923 C   0  0  0  0  0  0  0  0  0  0  0  0
    2.2576    2.4822    9.1903 C   0  0  0  0  0  0  0  0  0  0  0  0
    1.6103    4.8671    8.0628 Cl  0  0  0  0  0  0  0  0  0  0  0  0
    4.1725    5.5942    9.2950 O   0  0  0  0  0  0  0  0  0  0  0  0
   -0.9153    0.0571    7.2004 H   0  0  0  0  0  0  0  0  0  0  0  0
   -2.2797    0.0321    5.1246 H   0  0  0  0  0  0  0  0  0  0  0  0
    2.7600    0.0182    4.9299 H   0  0  0  0  0  0  0  0  0  0  0  0
    2.1179    0.0060    2.0338 H   0  0  0  0  0  0  0  0  0  0  0  0
   -2.2995    0.0125   -0.2701 Au  0  0  0  0  0  0  0  0  0  0  0  0
    0.4309   -0.9664    8.4560 H   0  0  0  0  0  0  0  0  0  0  0  0
    3.1983   -0.1710   11.1640 H   0  0  0  0  0  0  0  0  0  0  0  0
    4.8942    1.4761   11.1075 H   0  0  0  0  0  0  0  0  0  0  0  0
    1.3156    2.1433    8.7663 H   0  0  0  0  0  0  0  0  0  0  0  0
    5.0255    5.7621    9.7299 H   0  0  0  0  0  0  0  0  0  0  0  0
  1  2  2  0  0  0  0
  2 13  1  0  0  0  0
  3  4  1  0  0  0  0
  3  2  1  1  0  0  0
  4 25  1  0  0  0  0
  5 26  1  0  0  0  0
  5  4  2  0  0  0  0
  6  5  1  0  0  0  0
  7  6  1  0  0  0  0
  7  8  2  0  0  0  0
  8  3  1  0  0  0  0
  9  7  1  0  0  0  0
 10  9  1  0  0  0  0
 10 11  2  0  0  0  0
 11  6  2  0  0  0  0
 12 10  1  0  0  0  0
 13 14  1  0  0  0  0
 14 15  2  0  0  0  0
 15 31  1  0  0  0  0
 16 15  1  0  0  0  0
 16 17  2  0  0  0  0
 17 32  1  0  0  0  0
 18 17  1  0  0  0  0
 18 19  1  0  0  0  0
 20 18  2  0  0  0  0
 21 22  2  0  0  0  0
 21 20  1  0  0  0  0
 22 16  1  0  0  0  0
 23 21  1  0  0  0  0
 24 20  1  0  0  0  0
 24 34  1  0  0  0  0
 27  8  1  0  0  0  0
 28  9  1  0  0  0  0
 29 12  1  0  0  0  0
 30 13  1  0  0  0  0
 33 22  1  0  0  0  0
M  RAD  1   3   2
M  END
