181611066.xyz
 OpenBabel07262113433D
Fc1ccc(cc1)/C=N\NC(=O)c1ccc2c(c1)[nH]c(n2)S
 33 35  0  0  1  0  0  0  0  0999 V2000
   -2.6797    0.3580   15.0153 F   0  0  0  0  0  0  0  0  0  0  0  0
   -2.0482    0.5446   13.8508 C   0  0  0  0  0  0  0  0  0  0  0  0
   -1.3175    1.7151   13.6530 C   0  0  0  0  0  0  0  0  0  0  0  0
   -0.6629    1.9005   12.4381 C   0  0  0  0  0  0  0  0  0  0  0  0
   -0.7402    0.9422   11.4081 C   0  0  0  0  0  0  0  0  0  0  0  0
   -1.4718   -0.2383   11.6534 C   0  0  0  0  0  0  0  0  0  0  0  0
   -2.1257   -0.4398   12.8688 C   0  0  0  0  0  0  0  0  0  0  0  0
   -0.0022    1.2034   10.1561 C   0  0  0  0  0  0  0  0  0  0  0  0
   -0.2896    0.8814    8.9441 N   0  0  0  0  0  0  0  0  0  0  0  0
   -1.4315    0.2346    8.6572 N   0  0  0  0  0  0  0  0  0  0  0  0
   -1.8991   -0.0496    7.3744 C   0  0  0  0  0  0  0  0  0  0  0  0
   -3.0755   -0.3651    7.2775 O   0  0  0  0  0  0  0  0  0  0  0  0
   -0.9941    0.0060    6.1874 C   0  0  1  0  0  0  0  0  0  0  0  0
    0.4223    0.0022    6.2373 C   0  0  0  0  0  0  0  0  0  0  0  0
    1.1933   -0.0061    5.0784 C   0  0  0  0  0  0  0  0  0  0  0  0
    0.5413   -0.0003    3.8378 C   0  0  0  0  0  0  0  0  0  0  0  0
   -0.8808   -0.0003    3.8005 C   0  0  0  0  0  0  0  0  0  0  0  0
   -1.6596   -0.0069    4.9480 C   0  0  0  0  0  0  0  0  0  0  0  0
   -1.1915    0.0003    2.4472 N   0  0  0  0  0  0  0  0  0  0  0  0
   -0.0000   -0.0000    1.7560 C   0  0  0  0  0  0  0  0  0  0  0  0
    1.0498   -0.0000    2.5527 N   0  0  0  0  0  0  0  0  0  0  0  0
    0.0000    0.0000    0.0000 S   0  0  0  0  0  0  0  0  0  0  0  0
   -1.2694    2.4582   14.4508 H   0  0  0  0  0  0  0  0  0  0  0  0
   -0.0817    2.8115   12.2757 H   0  0  0  0  0  0  0  0  0  0  0  0
   -1.5036   -1.0318   10.9054 H   0  0  0  0  0  0  0  0  0  0  0  0
   -2.6878   -1.3535   13.0688 H   0  0  0  0  0  0  0  0  0  0  0  0
    0.9223    1.7852   10.2556 H   0  0  0  0  0  0  0  0  0  0  0  0
   -2.1742    0.1550    9.3561 H   0  0  0  0  0  0  0  0  0  0  0  0
    0.9157    0.0108    7.2053 H   0  0  0  0  0  0  0  0  0  0  0  0
    2.2835   -0.0167    5.1253 H   0  0  0  0  0  0  0  0  0  0  0  0
   -2.7495   -0.0302    4.9309 H   0  0  0  0  0  0  0  0  0  0  0  0
   -2.1164   -0.0024    2.0374 H   0  0  0  0  0  0  0  0  0  0  0  0
    2.3010   -0.0075   -0.2601 Au  0  0  0  0  0  0  0  0  0  0  0  0
  2  1  1  0  0  0  0
  3  2  1  0  0  0  0
  3 23  1  0  0  0  0
  4  3  2  0  0  0  0
  5  6  2  0  0  0  0
  5  4  1  0  0  0  0
  6  7  1  0  0  0  0
  7 26  1  0  0  0  0
  7  2  2  0  0  0  0
  8 27  1  0  0  0  0
  8  5  1  0  0  0  0
  9  8  2  0  0  0  0
 10  9  1  0  0  0  0
 10 28  1  0  0  0  0
 11 10  1  0  0  0  0
 12 11  2  0  0  0  0
 13 14  1  0  0  0  0
 13 11  1  1  0  0  0
 14 29  1  0  0  0  0
 15 30  1  0  0  0  0
 15 14  2  0  0  0  0
 16 15  1  0  0  0  0
 17 16  1  0  0  0  0
 17 18  2  0  0  0  0
 18 13  1  0  0  0  0
 19 17  1  0  0  0  0
 20 19  1  0  0  0  0
 20 21  2  0  0  0  0
 21 16  2  0  0  0  0
 22 20  1  0  0  0  0
 24  4  1  0  0  0  0
 25  6  1  0  0  0  0
 31 18  1  0  0  0  0
 32 19  1  0  0  0  0
 33 22  1  0  0  0  0
M  RAD  1  13   2
M  END
