181611000.xyz
 OpenBabel07262113433D
Clc1ccc(c(c1)Cl)/C=N\NC(=O)c1ccc2c(c1)[nH]c(n2)S
 33 35  0  0  1  0  0  0  0  0999 V2000
    4.9627    5.2883    8.9937 Cl  0  0  0  0  0  0  0  0  0  0  0  0
    4.2228    3.7561    9.3793 C   0  0  0  0  0  0  0  0  0  0  0  0
    5.0029    2.7190    9.8988 C   0  0  0  0  0  0  0  0  0  0  0  0
    4.3919    1.5075   10.2003 C   0  0  0  0  0  0  0  0  0  0  0  0
    3.0233    1.2773    9.9691 C   0  0  0  0  0  0  0  0  0  0  0  0
    2.2664    2.3582    9.4821 C   0  0  0  0  0  0  0  0  0  0  0  0
    2.8536    3.5887    9.1802 C   0  0  0  0  0  0  0  0  0  0  0  0
    0.5358    2.2304    9.2797 Cl  0  0  0  0  0  0  0  0  0  0  0  0
    2.4910   -0.0527   10.3355 C   0  0  0  0  0  0  0  0  0  0  0  0
    1.6856   -0.8788    9.7705 N   0  0  0  0  0  0  0  0  0  0  0  0
    1.1628   -0.6851    8.5339 N   0  0  0  0  0  0  0  0  0  0  0  0
    1.7921   -0.1443    7.4211 C   0  0  0  0  0  0  0  0  0  0  0  0
    2.9381    0.2663    7.4424 O   0  0  0  0  0  0  0  0  0  0  0  0
    0.9535   -0.1420    6.1802 C   0  0  1  0  0  0  0  0  0  0  0  0
   -0.4662   -0.1568    6.2188 C   0  0  0  0  0  0  0  0  0  0  0  0
   -1.2268   -0.1323    5.0577 C   0  0  0  0  0  0  0  0  0  0  0  0
   -0.5543   -0.0871    3.8242 C   0  0  0  0  0  0  0  0  0  0  0  0
    0.8728   -0.0543    3.8009 C   0  0  0  0  0  0  0  0  0  0  0  0
    1.6402   -0.0752    4.9642 C   0  0  0  0  0  0  0  0  0  0  0  0
    1.1902    0.0000    2.4632 N   0  0  0  0  0  0  0  0  0  0  0  0
    0.0000   -0.0000    1.7548 C   0  0  0  0  0  0  0  0  0  0  0  0
   -1.0534   -0.0516    2.5436 N   0  0  0  0  0  0  0  0  0  0  0  0
    0.0000    0.0000    0.0000 S   0  0  0  0  0  0  0  0  0  0  0  0
    6.0705    2.8681   10.0625 H   0  0  0  0  0  0  0  0  0  0  0  0
    4.9947    0.6911   10.6050 H   0  0  0  0  0  0  0  0  0  0  0  0
    2.2422    4.4071    8.8024 H   0  0  0  0  0  0  0  0  0  0  0  0
    2.8610   -0.4242   11.3016 H   0  0  0  0  0  0  0  0  0  0  0  0
    0.4005   -1.3269    8.3470 H   0  0  0  0  0  0  0  0  0  0  0  0
   -0.9731   -0.1441    7.1852 H   0  0  0  0  0  0  0  0  0  0  0  0
   -2.3174   -0.1318    5.0863 H   0  0  0  0  0  0  0  0  0  0  0  0
    2.7301   -0.0363    4.9666 H   0  0  0  0  0  0  0  0  0  0  0  0
    2.1112    0.0345    2.0447 H   0  0  0  0  0  0  0  0  0  0  0  0
   -0.1064    2.2635   -0.4505 Au  0  0  0  0  0  0  0  0  0  0  0  0
  1  2  1  0  0  0  0
  2  3  1  0  0  0  0
  3 24  1  0  0  0  0
  3  4  2  0  0  0  0
  4 25  1  0  0  0  0
  5  4  1  0  0  0  0
  5  9  1  0  0  0  0
  6  5  2  0  0  0  0
  7  2  2  0  0  0  0
  7  6  1  0  0  0  0
  8  6  1  0  0  0  0
  9 27  1  0  0  0  0
 10  9  2  0  0  0  0
 11 10  1  0  0  0  0
 12 13  2  0  0  0  0
 12 11  1  0  0  0  0
 14 15  1  0  0  0  0
 14 12  1  1  0  0  0
 15 29  1  0  0  0  0
 16 30  1  0  0  0  0
 16 15  2  0  0  0  0
 17 16  1  0  0  0  0
 18 17  1  0  0  0  0
 18 19  2  0  0  0  0
 19 31  1  0  0  0  0
 19 14  1  0  0  0  0
 20 18  1  0  0  0  0
 21 20  1  0  0  0  0
 21 22  2  0  0  0  0
 22 17  2  0  0  0  0
 23 21  1  0  0  0  0
 26  7  1  0  0  0  0
 28 11  1  0  0  0  0
 32 20  1  0  0  0  0
 33 23  1  0  0  0  0
M  RAD  1  14   2
M  END
