181610991.xyz
 OpenBabel07262113433D
Clc1ccc(cc1)/C=N\NC(=O)c1ccc2c(c1)[nH]c(n2)S
 33 35  0  0  1  0  0  0  0  0999 V2000
   -2.8669    0.3448   15.3839 Cl  0  0  0  0  0  0  0  0  0  0  0  0
   -2.0446    0.5773   13.8642 C   0  0  0  0  0  0  0  0  0  0  0  0
   -1.3006    1.7421   13.6507 C   0  0  0  0  0  0  0  0  0  0  0  0
   -0.6478    1.9195   12.4340 C   0  0  0  0  0  0  0  0  0  0  0  0
   -0.7345    0.9607   11.4061 C   0  0  0  0  0  0  0  0  0  0  0  0
   -1.4740   -0.2130   11.6577 C   0  0  0  0  0  0  0  0  0  0  0  0
   -2.1254   -0.4064   12.8753 C   0  0  0  0  0  0  0  0  0  0  0  0
    0.0007    1.2151   10.1516 C   0  0  0  0  0  0  0  0  0  0  0  0
   -0.2888    0.8870    8.9415 N   0  0  0  0  0  0  0  0  0  0  0  0
   -1.4298    0.2396    8.6572 N   0  0  0  0  0  0  0  0  0  0  0  0
   -1.8975   -0.0485    7.3746 C   0  0  0  0  0  0  0  0  0  0  0  0
   -3.0735   -0.3653    7.2795 O   0  0  0  0  0  0  0  0  0  0  0  0
   -0.9931    0.0061    6.1875 C   0  0  1  0  0  0  0  0  0  0  0  0
    0.4234    0.0020    6.2371 C   0  0  0  0  0  0  0  0  0  0  0  0
    1.1941   -0.0065    5.0780 C   0  0  0  0  0  0  0  0  0  0  0  0
    0.5417   -0.0006    3.8376 C   0  0  0  0  0  0  0  0  0  0  0  0
   -0.8804   -0.0006    3.8006 C   0  0  0  0  0  0  0  0  0  0  0  0
   -1.6590   -0.0071    4.9482 C   0  0  0  0  0  0  0  0  0  0  0  0
   -1.1914    0.0001    2.4474 N   0  0  0  0  0  0  0  0  0  0  0  0
    0.0000   -0.0000    1.7559 C   0  0  0  0  0  0  0  0  0  0  0  0
    1.0499   -0.0000    2.5526 N   0  0  0  0  0  0  0  0  0  0  0  0
    0.0000    0.0000    0.0000 S   0  0  0  0  0  0  0  0  0  0  0  0
   -1.2363    2.4956   14.4368 H   0  0  0  0  0  0  0  0  0  0  0  0
   -0.0608    2.8266   12.2692 H   0  0  0  0  0  0  0  0  0  0  0  0
   -1.5141   -1.0099   10.9136 H   0  0  0  0  0  0  0  0  0  0  0  0
   -2.6897   -1.3203   13.0650 H   0  0  0  0  0  0  0  0  0  0  0  0
    0.9250    1.7979   10.2468 H   0  0  0  0  0  0  0  0  0  0  0  0
   -2.1722    0.1598    9.3565 H   0  0  0  0  0  0  0  0  0  0  0  0
    0.9173    0.0101    7.2048 H   0  0  0  0  0  0  0  0  0  0  0  0
    2.2842   -0.0173    5.1246 H   0  0  0  0  0  0  0  0  0  0  0  0
   -2.7489   -0.0302    4.9313 H   0  0  0  0  0  0  0  0  0  0  0  0
   -2.1163   -0.0018    2.0377 H   0  0  0  0  0  0  0  0  0  0  0  0
    2.3013    0.0055   -0.2595 Au  0  0  0  0  0  0  0  0  0  0  0  0
  2  1  1  0  0  0  0
  3  2  1  0  0  0  0
  3 23  1  0  0  0  0
  4  3  2  0  0  0  0
  5  6  2  0  0  0  0
  5  4  1  0  0  0  0
  6  7  1  0  0  0  0
  7 26  1  0  0  0  0
  7  2  2  0  0  0  0
  8 27  1  0  0  0  0
  8  5  1  0  0  0  0
  9  8  2  0  0  0  0
 10  9  1  0  0  0  0
 10 28  1  0  0  0  0
 11 10  1  0  0  0  0
 12 11  2  0  0  0  0
 13 14  1  0  0  0  0
 13 11  1  1  0  0  0
 14 29  1  0  0  0  0
 15 30  1  0  0  0  0
 15 14  2  0  0  0  0
 16 15  1  0  0  0  0
 17 16  1  0  0  0  0
 17 18  2  0  0  0  0
 18 13  1  0  0  0  0
 19 17  1  0  0  0  0
 20 19  1  0  0  0  0
 20 21  2  0  0  0  0
 21 16  2  0  0  0  0
 22 20  1  0  0  0  0
 24  4  1  0  0  0  0
 25  6  1  0  0  0  0
 31 18  1  0  0  0  0
 32 19  1  0  0  0  0
 33 22  1  0  0  0  0
M  RAD  1  13   2
M  END
