181606225.xyz
 OpenBabel07262113433D
Fc1cccc(c1)/C=N\n1c(S)nnc1C(F)(F)F
 25 26  0  0  0  0  0  0  0  0999 V2000
   -2.5595   -3.8515   -2.2169 F   0  0  0  0  0  0  0  0  0  0  0  0
   -2.2645   -3.4959   -0.9614 C   0  0  0  0  0  0  0  0  0  0  0  0
   -1.4669   -4.3345   -0.1862 C   0  0  0  0  0  0  0  0  0  0  0  0
   -1.1755   -3.9604    1.1285 C   0  0  0  0  0  0  0  0  0  0  0  0
   -1.6519   -2.7585    1.6490 C   0  0  0  0  0  0  0  0  0  0  0  0
   -2.4413   -1.9136    0.8473 C   0  0  0  0  0  0  0  0  0  0  0  0
   -2.7703   -2.3018   -0.4618 C   0  0  0  0  0  0  0  0  0  0  0  0
   -2.9829   -0.6360    1.3453 C   0  0  0  0  0  0  0  0  0  0  0  0
   -2.4664    0.2357    2.1321 N   0  0  0  0  0  0  0  0  0  0  0  0
   -1.1459    0.0349    2.5177 N   0  0  0  0  0  0  0  0  0  0  0  0
    0.0000    0.0000    1.7494 C   0  0  0  0  0  0  0  0  0  0  0  0
    0.0000    0.0000    0.0000 S   0  0  0  0  0  0  0  0  0  0  0  0
    1.0531    0.0000    2.5549 N   0  0  0  0  0  0  0  0  0  0  0  0
    0.6139    0.0306    3.8422 N   0  0  0  0  0  0  0  0  0  0  0  0
   -0.6926    0.0754    3.8175 C   0  0  0  0  0  0  0  0  0  0  0  0
   -1.6125    0.0183    4.9993 C   0  0  0  0  0  0  0  0  0  0  0  0
   -2.4242    1.0822    5.0596 F   0  0  0  0  0  0  0  0  0  0  0  0
   -2.4030   -1.0776    4.9169 F   0  0  0  0  0  0  0  0  0  0  0  0
   -0.9242   -0.0509    6.1340 F   0  0  0  0  0  0  0  0  0  0  0  0
   -1.0950   -5.2661   -0.6158 H   0  0  0  0  0  0  0  0  0  0  0  0
   -0.5666   -4.6165    1.7535 H   0  0  0  0  0  0  0  0  0  0  0  0
   -1.4316   -2.4870    2.6804 H   0  0  0  0  0  0  0  0  0  0  0  0
   -3.3936   -1.6746   -1.1017 H   0  0  0  0  0  0  0  0  0  0  0  0
   -3.9921   -0.3675    1.0051 H   0  0  0  0  0  0  0  0  0  0  0  0
    2.2466    0.5231   -0.2416 Au  0  0  0  0  0  0  0  0  0  0  0  0
  1  2  1  0  0  0  0
  2  7  2  0  0  0  0
  2  3  1  0  0  0  0
  3  4  2  0  0  0  0
  4  5  1  0  0  0  0
  4 21  1  0  0  0  0
  5 22  1  0  0  0  0
  6  8  1  0  0  0  0
  6  5  2  0  0  0  0
  7  6  1  0  0  0  0
  8  9  2  0  0  0  0
  9 10  1  0  0  0  0
 10 15  1  0  0  0  0
 11 10  1  0  0  0  0
 11 13  2  0  0  0  0
 12 11  1  0  0  0  0
 13 14  1  0  0  0  0
 15 14  2  0  0  0  0
 15 16  1  0  0  0  0
 16 17  1  0  0  0  0
 16 19  1  0  0  0  0
 18 16  1  0  0  0  0
 20  3  1  0  0  0  0
 23  7  1  0  0  0  0
 24  8  1  0  0  0  0
 25 12  1  0  0  0  0
M  END
