181610559.xyz
 OpenBabel07262113433D
O=C(c1ccc2c(c1)[nH]c(n2)S)N/N=C\c1ccccc1O
 34 36  0  0  1  0  0  0  0  0999 V2000
    2.9692    0.1784    7.4132 O   0  0  0  0  0  0  0  0  0  0  0  0
    1.8077   -0.1707    7.4222 C   0  0  0  0  0  0  0  0  0  0  0  0
    0.9504   -0.1467    6.1839 C   0  0  1  0  0  0  0  0  0  0  0  0
   -0.4707   -0.1640    6.2173 C   0  0  0  0  0  0  0  0  0  0  0  0
   -1.2308   -0.1369    5.0557 C   0  0  0  0  0  0  0  0  0  0  0  0
   -0.5583   -0.0885    3.8223 C   0  0  0  0  0  0  0  0  0  0  0  0
    0.8683   -0.0549    3.8024 C   0  0  0  0  0  0  0  0  0  0  0  0
    1.6341   -0.0766    4.9671 C   0  0  0  0  0  0  0  0  0  0  0  0
    1.1884    0.0000    2.4652 N   0  0  0  0  0  0  0  0  0  0  0  0
    0.0000   -0.0000    1.7541 C   0  0  0  0  0  0  0  0  0  0  0  0
   -1.0554   -0.0521    2.5408 N   0  0  0  0  0  0  0  0  0  0  0  0
    0.0000    0.0000    0.0000 S   0  0  0  0  0  0  0  0  0  0  0  0
    1.1441   -0.6313    8.5503 N   0  0  0  0  0  0  0  0  0  0  0  0
    1.8056   -0.7590    9.7125 N   0  0  0  0  0  0  0  0  0  0  0  0
    1.2106   -1.1371   10.7864 C   0  0  0  0  0  0  0  0  0  0  0  0
   -0.2028   -1.4448   11.1190 C   0  0  0  0  0  0  0  0  0  0  0  0
   -0.6155   -1.1011   12.4231 C   0  0  0  0  0  0  0  0  0  0  0  0
   -1.9130   -1.3148   12.8798 C   0  0  0  0  0  0  0  0  0  0  0  0
   -2.8484   -1.9116   12.0303 C   0  0  0  0  0  0  0  0  0  0  0  0
   -2.4681   -2.2913   10.7444 C   0  0  0  0  0  0  0  0  0  0  0  0
   -1.1613   -2.0736   10.2936 C   0  0  0  0  0  0  0  0  0  0  0  0
   -0.7820   -2.4922    9.0475 O   0  0  0  0  0  0  0  0  0  0  0  0
   -0.9854   -0.1664    7.1795 H   0  0  0  0  0  0  0  0  0  0  0  0
   -2.3217   -0.1375    5.0830 H   0  0  0  0  0  0  0  0  0  0  0  0
    2.7241   -0.0382    4.9743 H   0  0  0  0  0  0  0  0  0  0  0  0
    2.1108    0.0332    2.0496 H   0  0  0  0  0  0  0  0  0  0  0  0
   -0.0241    2.2653   -0.4559 Au  0  0  0  0  0  0  0  0  0  0  0  0
    0.2604   -1.1270    8.4253 H   0  0  0  0  0  0  0  0  0  0  0  0
    1.8720   -1.1466   11.6625 H   0  0  0  0  0  0  0  0  0  0  0  0
    0.1206   -0.6387   13.0856 H   0  0  0  0  0  0  0  0  0  0  0  0
   -2.1930   -1.0208   13.8930 H   0  0  0  0  0  0  0  0  0  0  0  0
   -3.8715   -2.0916   12.3673 H   0  0  0  0  0  0  0  0  0  0  0  0
   -3.1866   -2.7780   10.0775 H   0  0  0  0  0  0  0  0  0  0  0  0
   -1.5205   -2.9281    8.6012 H   0  0  0  0  0  0  0  0  0  0  0  0
  1  2  2  0  0  0  0
  2 13  1  0  0  0  0
  3  4  1  0  0  0  0
  3  2  1  1  0  0  0
  4 23  1  0  0  0  0
  5 24  1  0  0  0  0
  5  4  2  0  0  0  0
  6  5  1  0  0  0  0
  7  6  1  0  0  0  0
  7  8  2  0  0  0  0
  8 25  1  0  0  0  0
  8  3  1  0  0  0  0
  9  7  1  0  0  0  0
 10  9  1  0  0  0  0
 10 11  2  0  0  0  0
 11  6  2  0  0  0  0
 12 10  1  0  0  0  0
 13 14  1  0  0  0  0
 14 15  2  0  0  0  0
 15 16  1  0  0  0  0
 15 29  1  0  0  0  0
 16 17  2  0  0  0  0
 17 18  1  0  0  0  0
 17 30  1  0  0  0  0
 18 31  1  0  0  0  0
 19 32  1  0  0  0  0
 19 18  2  0  0  0  0
 20 19  1  0  0  0  0
 21 20  2  0  0  0  0
 21 16  1  0  0  0  0
 22 21  1  0  0  0  0
 26  9  1  0  0  0  0
 27 12  1  0  0  0  0
 28 13  1  0  0  0  0
 33 20  1  0  0  0  0
 34 22  1  0  0  0  0
M  RAD  1   3   2
M  END
