181601884.xyz
 OpenBabel07262113433D
Sc1nnc(n1/N=C\c1cc(c(c(c1)C(C)(C)C)O)C(C)(C)C)c1ccccc1
 57 59  0  0  0  0  0  0  0  0999 V2000
    0.0000    0.0000    0.0000 S   0  0  0  0  0  0  0  0  0  0  0  0
   -0.0000   -0.0000    1.7381 C   0  0  0  0  0  0  0  0  0  0  0  0
    1.0693   -0.0000    2.5218 N   0  0  0  0  0  0  0  0  0  0  0  0
    0.6549   -0.0976    3.8026 N   0  0  0  0  0  0  0  0  0  0  0  0
   -0.6774   -0.1270    3.8270 C   0  0  0  0  0  0  0  0  0  0  0  0
   -1.1327   -0.0935    2.5341 N   0  0  0  0  0  0  0  0  0  0  0  0
   -2.4530   -0.0806    2.0908 N   0  0  0  0  0  0  0  0  0  0  0  0
   -2.8394   -1.1293    1.4458 C   0  0  0  0  0  0  0  0  0  0  0  0
   -2.1715   -2.3915    1.1373 C   0  0  0  0  0  0  0  0  0  0  0  0
   -2.6289   -3.1021    0.0161 C   0  0  0  0  0  0  0  0  0  0  0  0
   -2.0184   -4.2722   -0.4310 C   0  0  0  0  0  0  0  0  0  0  0  0
   -0.9075   -4.7437    0.3166 C   0  0  0  0  0  0  0  0  0  0  0  0
   -0.4491   -4.0907    1.4933 C   0  0  0  0  0  0  0  0  0  0  0  0
   -1.1006   -2.9214    1.8746 C   0  0  0  0  0  0  0  0  0  0  0  0
    0.7499   -4.6159    2.3143 C   0  0  0  0  0  0  0  0  0  0  0  0
    2.0377   -4.5652    1.4555 C   0  0  0  0  0  0  0  0  0  0  0  0
    0.4733   -6.0461    2.8380 C   0  0  0  0  0  0  0  0  0  0  0  0
    1.0198   -3.7396    3.5518 C   0  0  0  0  0  0  0  0  0  0  0  0
   -0.2984   -5.8654   -0.1440 O   0  0  0  0  0  0  0  0  0  0  0  0
   -2.5199   -5.0074   -1.6896 C   0  0  0  0  0  0  0  0  0  0  0  0
   -1.4109   -5.0266   -2.7653 C   0  0  0  0  0  0  0  0  0  0  0  0
   -3.7432   -4.3041   -2.3034 C   0  0  0  0  0  0  0  0  0  0  0  0
   -2.9490   -6.4473   -1.3299 C   0  0  0  0  0  0  0  0  0  0  0  0
   -1.4743   -0.2530    5.0492 C   0  0  0  0  0  0  0  0  0  0  0  0
   -2.8636   -0.0385    5.0877 C   0  0  0  0  0  0  0  0  0  0  0  0
   -3.5577   -0.1672    6.2922 C   0  0  0  0  0  0  0  0  0  0  0  0
   -2.8826   -0.5103    7.4661 C   0  0  0  0  0  0  0  0  0  0  0  0
   -1.4988   -0.7182    7.4342 C   0  0  0  0  0  0  0  0  0  0  0  0
   -0.7974   -0.5897    6.2384 C   0  0  0  0  0  0  0  0  0  0  0  0
   -0.8849    2.0880   -0.4591 Au  0  0  0  0  0  0  0  0  0  0  0  0
   -3.8545   -1.0222    1.0397 H   0  0  0  0  0  0  0  0  0  0  0  0
   -3.4760   -2.6953   -0.5335 H   0  0  0  0  0  0  0  0  0  0  0  0
   -0.7745   -2.4184    2.7755 H   0  0  0  0  0  0  0  0  0  0  0  0
    2.8988   -4.9192    2.0435 H   0  0  0  0  0  0  0  0  0  0  0  0
    2.2386   -3.5294    1.1438 H   0  0  0  0  0  0  0  0  0  0  0  0
    2.0002   -5.1717    0.5366 H   0  0  0  0  0  0  0  0  0  0  0  0
    0.2824   -6.7954    2.0544 H   0  0  0  0  0  0  0  0  0  0  0  0
    1.3318   -6.4038    3.4274 H   0  0  0  0  0  0  0  0  0  0  0  0
   -0.4119   -6.0441    3.4919 H   0  0  0  0  0  0  0  0  0  0  0  0
    1.8675   -4.1607    4.1129 H   0  0  0  0  0  0  0  0  0  0  0  0
    0.1554   -3.7116    4.2321 H   0  0  0  0  0  0  0  0  0  0  0  0
    1.2824   -2.7070    3.2851 H   0  0  0  0  0  0  0  0  0  0  0  0
    0.4586   -6.0833    0.4114 H   0  0  0  0  0  0  0  0  0  0  0  0
   -1.1211   -3.9995   -3.0377 H   0  0  0  0  0  0  0  0  0  0  0  0
   -0.5162   -5.5575   -2.4197 H   0  0  0  0  0  0  0  0  0  0  0  0
   -1.7798   -5.5276   -3.6749 H   0  0  0  0  0  0  0  0  0  0  0  0
   -3.5122   -3.2777   -2.6275 H   0  0  0  0  0  0  0  0  0  0  0  0
   -4.0733   -4.8632   -3.1918 H   0  0  0  0  0  0  0  0  0  0  0  0
   -4.5926   -4.2650   -1.6038 H   0  0  0  0  0  0  0  0  0  0  0  0
   -2.1157   -7.0330   -0.9245 H   0  0  0  0  0  0  0  0  0  0  0  0
   -3.7593   -6.4333   -0.5836 H   0  0  0  0  0  0  0  0  0  0  0  0
   -3.3261   -6.9611   -2.2288 H   0  0  0  0  0  0  0  0  0  0  0  0
   -3.3910    0.2396    4.1759 H   0  0  0  0  0  0  0  0  0  0  0  0
   -4.6365    0.0049    6.3119 H   0  0  0  0  0  0  0  0  0  0  0  0
   -3.4318   -0.6139    8.4050 H   0  0  0  0  0  0  0  0  0  0  0  0
   -0.9636   -0.9825    8.3494 H   0  0  0  0  0  0  0  0  0  0  0  0
    0.2818   -0.7417    6.1959 H   0  0  0  0  0  0  0  0  0  0  0  0
  1  2  1  0  0  0  0
  2  3  2  0  0  0  0
  2  6  1  0  0  0  0
  3  4  1  0  0  0  0
  4  5  2  0  0  0  0
  5 24  1  0  0  0  0
  6  5  1  0  0  0  0
  7  6  1  0  0  0  0
  8  7  2  0  0  0  0
  9  8  1  0  0  0  0
  9 14  2  0  0  0  0
 10  9  1  0  0  0  0
 11 10  2  0  0  0  0
 11 12  1  0  0  0  0
 12 13  2  0  0  0  0
 13 14  1  0  0  0  0
 13 15  1  0  0  0  0
 14 33  1  0  0  0  0
 15 17  1  0  0  0  0
 15 18  1  0  0  0  0
 16 34  1  0  0  0  0
 16 15  1  0  0  0  0
 17 38  1  0  0  0  0
 17 39  1  0  0  0  0
 18 40  1  0  0  0  0
 18 41  1  0  0  0  0
 19 12  1  0  0  0  0
 19 43  1  0  0  0  0
 20 23  1  0  0  0  0
 20 11  1  0  0  0  0
 21 45  1  0  0  0  0
 21 20  1  0  0  0  0
 22 20  1  0  0  0  0
 22 49  1  0  0  0  0
 23 50  1  0  0  0  0
 23 51  1  0  0  0  0
 24 25  2  0  0  0  0
 24 29  1  0  0  0  0
 25 26  1  0  0  0  0
 26 54  1  0  0  0  0
 26 27  2  0  0  0  0
 27 55  1  0  0  0  0
 28 27  1  0  0  0  0
 28 56  1  0  0  0  0
 29 28  2  0  0  0  0
 30  1  1  0  0  0  0
 31  8  1  0  0  0  0
 32 10  1  0  0  0  0
 35 16  1  0  0  0  0
 36 16  1  0  0  0  0
 37 17  1  0  0  0  0
 42 18  1  0  0  0  0
 44 21  1  0  0  0  0
 46 21  1  0  0  0  0
 47 22  1  0  0  0  0
 48 22  1  0  0  0  0
 52 23  1  0  0  0  0
 53 25  1  0  0  0  0
 57 29  1  0  0  0  0
M  END
