181610997.xyz
 OpenBabel07262113433D
O=C(c1ccc2c(c1)[nH]c(n2)S)N/N=C\c1cccc(c1Cl)Cl
 33 35  0  0  1  0  0  0  0  0999 V2000
   -1.2216    0.4091    8.5233 O   0  0  0  0  0  0  0  0  0  0  0  0
   -1.7281    0.0271    7.4872 C   0  0  0  0  0  0  0  0  0  0  0  0
   -1.0000    0.0023    6.1814 C   0  0  2  0  0  0  0  0  0  0  0  0
    0.4130    0.0251    6.2331 C   0  0  0  0  0  0  0  0  0  0  0  0
    1.1886    0.0164    5.0795 C   0  0  0  0  0  0  0  0  0  0  0  0
    0.5342   -0.0018    3.8391 C   0  0  0  0  0  0  0  0  0  0  0  0
   -0.8881   -0.0066    3.7976 C   0  0  0  0  0  0  0  0  0  0  0  0
   -1.6720   -0.0021    4.9473 C   0  0  0  0  0  0  0  0  0  0  0  0
   -1.1950   -0.0010    2.4454 N   0  0  0  0  0  0  0  0  0  0  0  0
    0.0000    0.0000    1.7552 C   0  0  0  0  0  0  0  0  0  0  0  0
    1.0455   -0.0000    2.5553 N   0  0  0  0  0  0  0  0  0  0  0  0
    0.0000    0.0000    0.0000 S   0  0  0  0  0  0  0  0  0  0  0  0
   -3.0469   -0.4378    7.4171 N   0  0  0  0  0  0  0  0  0  0  0  0
   -3.8288   -0.7011    8.5177 N   0  0  0  0  0  0  0  0  0  0  0  0
   -3.9483    0.1772    9.4444 C   0  0  0  0  0  0  0  0  0  0  0  0
   -3.5067    1.5879    9.4845 C   0  0  0  0  0  0  0  0  0  0  0  0
   -3.6753    2.4248    8.3709 C   0  0  0  0  0  0  0  0  0  0  0  0
   -3.3287    3.7718    8.4323 C   0  0  0  0  0  0  0  0  0  0  0  0
   -2.8056    4.3091    9.6089 C   0  0  0  0  0  0  0  0  0  0  0  0
   -2.6367    3.4930   10.7298 C   0  0  0  0  0  0  0  0  0  0  0  0
   -2.9903    2.1358   10.6725 C   0  0  0  0  0  0  0  0  0  0  0  0
   -2.7611    1.1119   12.0586 Cl  0  0  0  0  0  0  0  0  0  0  0  0
   -1.9838    4.1832   12.1870 Cl  0  0  0  0  0  0  0  0  0  0  0  0
    0.8781    0.0526    7.2195 H   0  0  0  0  0  0  0  0  0  0  0  0
    2.2788    0.0290    5.1244 H   0  0  0  0  0  0  0  0  0  0  0  0
   -2.7615    0.0327    4.8912 H   0  0  0  0  0  0  0  0  0  0  0  0
   -2.1176   -0.0036    2.0304 H   0  0  0  0  0  0  0  0  0  0  0  0
    2.3002   -0.0084   -0.2675 Au  0  0  0  0  0  0  0  0  0  0  0  0
   -3.2027   -1.1374    6.6988 H   0  0  0  0  0  0  0  0  0  0  0  0
   -4.5282   -0.1673   10.3095 H   0  0  0  0  0  0  0  0  0  0  0  0
   -4.0800    2.0017    7.4509 H   0  0  0  0  0  0  0  0  0  0  0  0
   -3.4643    4.4133    7.5591 H   0  0  0  0  0  0  0  0  0  0  0  0
   -2.5229    5.3604    9.6747 H   0  0  0  0  0  0  0  0  0  0  0  0
  2  1  2  0  0  0  0
  3  4  1  0  0  0  0
  3  2  1  1  0  0  0
  4 24  1  0  0  0  0
  5 25  1  0  0  0  0
  5  4  2  0  0  0  0
  6  5  1  0  0  0  0
  7  6  1  0  0  0  0
  7  8  2  0  0  0  0
  8  3  1  0  0  0  0
  9  7  1  0  0  0  0
 10  9  1  0  0  0  0
 10 11  2  0  0  0  0
 11  6  2  0  0  0  0
 12 10  1  0  0  0  0
 13  2  1  0  0  0  0
 13 14  1  0  0  0  0
 14 15  2  0  0  0  0
 15 16  1  0  0  0  0
 15 30  1  0  0  0  0
 16 21  2  0  0  0  0
 17 18  2  0  0  0  0
 17 16  1  0  0  0  0
 18 19  1  0  0  0  0
 19 33  1  0  0  0  0
 19 20  2  0  0  0  0
 20 23  1  0  0  0  0
 21 20  1  0  0  0  0
 21 22  1  0  0  0  0
 26  8  1  0  0  0  0
 27  9  1  0  0  0  0
 28 12  1  0  0  0  0
 29 13  1  0  0  0  0
 31 17  1  0  0  0  0
 32 18  1  0  0  0  0
M  RAD  1   3   2
M  END
