186813974.xyz
 OpenBabel07262113443D
Oc1cc(O)cc(c1)C(=O)Nc1ccccc1S
 29 30  0  0  0  0  0  0  0  0999 V2000
   -8.3792    0.3300    0.8748 O   0  0  0  0  0  0  0  0  0  0  0  0
   -7.0868    0.0393    0.5888 C   0  0  0  0  0  0  0  0  0  0  0  0
   -6.7995   -0.3943   -0.7132 C   0  0  0  0  0  0  0  0  0  0  0  0
   -5.4845   -0.7132   -1.0628 C   0  0  0  0  0  0  0  0  0  0  0  0
   -5.1504   -1.1557   -2.3007 O   0  0  0  0  0  0  0  0  0  0  0  0
   -4.4504   -0.5930   -0.1233 C   0  0  0  0  0  0  0  0  0  0  0  0
   -4.7459   -0.1511    1.1709 C   0  0  0  0  0  0  0  0  0  0  0  0
   -6.0638    0.1555    1.5334 C   0  0  0  0  0  0  0  0  0  0  0  0
   -3.7049   -0.0116    2.2505 C   0  0  0  0  0  0  0  0  0  0  0  0
   -4.0135    0.0557    3.4292 O   0  0  0  0  0  0  0  0  0  0  0  0
   -2.4084    0.0377    1.7911 N   0  0  0  0  0  0  0  0  0  0  0  0
   -1.2176    0.0724    2.5106 C   0  0  0  0  0  0  0  0  0  0  0  0
   -1.1639    0.1487    3.9133 C   0  0  0  0  0  0  0  0  0  0  0  0
    0.0691    0.1572    4.5640 C   0  0  0  0  0  0  0  0  0  0  0  0
    1.2685    0.0866    3.8461 C   0  0  0  0  0  0  0  0  0  0  0  0
    1.2266    0.0000    2.4572 C   0  0  0  0  0  0  0  0  0  0  0  0
   -0.0000   -0.0000    1.7739 C   0  0  0  0  0  0  0  0  0  0  0  0
    0.0000    0.0000    0.0000 S   0  0  0  0  0  0  0  0  0  0  0  0
   -8.4456    0.6098    1.7975 H   0  0  0  0  0  0  0  0  0  0  0  0
   -7.6169   -0.4817   -1.4331 H   0  0  0  0  0  0  0  0  0  0  0  0
   -5.9412   -1.1991   -2.8538 H   0  0  0  0  0  0  0  0  0  0  0  0
   -3.4468   -0.8829   -0.4368 H   0  0  0  0  0  0  0  0  0  0  0  0
   -6.2630    0.4770    2.5578 H   0  0  0  0  0  0  0  0  0  0  0  0
   -2.2704    0.0838    0.7842 H   0  0  0  0  0  0  0  0  0  0  0  0
   -2.0976    0.1999    4.4671 H   0  0  0  0  0  0  0  0  0  0  0  0
    0.0899    0.2189    5.6548 H   0  0  0  0  0  0  0  0  0  0  0  0
    2.2285    0.0933    4.3663 H   0  0  0  0  0  0  0  0  0  0  0  0
    2.1457   -0.0679    1.8725 H   0  0  0  0  0  0  0  0  0  0  0  0
   -0.6937   -2.1435   -0.5479 Au  0  0  0  0  0  0  0  0  0  0  0  0
  1 19  1  0  0  0  0
  2  1  1  0  0  0  0
  2  8  2  0  0  0  0
  3  2  1  0  0  0  0
  4  3  2  0  0  0  0
  4  6  1  0  0  0  0
  5  4  1  0  0  0  0
  6  7  2  0  0  0  0
  7  8  1  0  0  0  0
  7  9  1  0  0  0  0
  8 23  1  0  0  0  0
  9 10  2  0  0  0  0
 11  9  1  0  0  0  0
 11 12  1  0  0  0  0
 12 13  2  0  0  0  0
 13 25  1  0  0  0  0
 13 14  1  0  0  0  0
 14 26  1  0  0  0  0
 15 27  1  0  0  0  0
 15 14  2  0  0  0  0
 16 15  1  0  0  0  0
 17 16  2  0  0  0  0
 17 12  1  0  0  0  0
 18 17  1  0  0  0  0
 20  3  1  0  0  0  0
 21  5  1  0  0  0  0
 22  6  1  0  0  0  0
 24 11  1  0  0  0  0
 28 16  1  0  0  0  0
 29 18  1  0  0  0  0
M  END
