186814792.xyz
 OpenBabel07262113443D
O=C(C(C)C)Nc1ccccc1S
 26 26  0  0  0  0  0  0  0  0999 V2000
    4.0049   -0.3323    3.4199 O   0  0  0  0  0  0  0  0  0  0  0  0
    3.7001   -0.2619    2.2440 C   0  0  0  0  0  0  0  0  0  0  0  0
    4.7178   -0.4260    1.1095 C   0  0  0  0  0  0  0  0  0  0  0  0
    4.6035   -1.8447    0.5219 C   0  0  0  0  0  0  0  0  0  0  0  0
    6.1289   -0.1298    1.6109 C   0  0  0  0  0  0  0  0  0  0  0  0
    2.4107   -0.0752    1.7911 N   0  0  0  0  0  0  0  0  0  0  0  0
    1.2204   -0.0000    2.5088 C   0  0  0  0  0  0  0  0  0  0  0  0
    1.1719    0.0576    3.9126 C   0  0  0  0  0  0  0  0  0  0  0  0
   -0.0579    0.1244    4.5654 C   0  0  0  0  0  0  0  0  0  0  0  0
   -1.2604    0.1305    3.8484 C   0  0  0  0  0  0  0  0  0  0  0  0
   -1.2247    0.0595    2.4590 C   0  0  0  0  0  0  0  0  0  0  0  0
   -0.0000    0.0000    1.7737 C   0  0  0  0  0  0  0  0  0  0  0  0
    0.0000    0.0000    0.0000 S   0  0  0  0  0  0  0  0  0  0  0  0
    4.4542    0.2962    0.3155 H   0  0  0  0  0  0  0  0  0  0  0  0
    5.3305   -1.9837   -0.2932 H   0  0  0  0  0  0  0  0  0  0  0  0
    4.8109   -2.5986    1.2979 H   0  0  0  0  0  0  0  0  0  0  0  0
    3.5974   -2.0399    0.1177 H   0  0  0  0  0  0  0  0  0  0  0  0
    6.8615   -0.2580    0.7994 H   0  0  0  0  0  0  0  0  0  0  0  0
    6.2102    0.8980    1.9946 H   0  0  0  0  0  0  0  0  0  0  0  0
    6.3907   -0.8092    2.4351 H   0  0  0  0  0  0  0  0  0  0  0  0
    2.2759   -0.0189    0.7832 H   0  0  0  0  0  0  0  0  0  0  0  0
    2.1076    0.0435    4.4658 H   0  0  0  0  0  0  0  0  0  0  0  0
   -0.0744    0.1710    5.6570 H   0  0  0  0  0  0  0  0  0  0  0  0
   -2.2180    0.1832    4.3704 H   0  0  0  0  0  0  0  0  0  0  0  0
   -2.1466    0.0483    1.8749 H   0  0  0  0  0  0  0  0  0  0  0  0
    0.5130   -2.1986   -0.5290 Au  0  0  0  0  0  0  0  0  0  0  0  0
  2  1  2  0  0  0  0
  3  5  1  0  0  0  0
  3  2  1  0  0  0  0
  4  3  1  0  0  0  0
  4 16  1  0  0  0  0
  5 19  1  0  0  0  0
  5 20  1  0  0  0  0
  6  2  1  0  0  0  0
  6  7  1  0  0  0  0
  7  8  2  0  0  0  0
  8 22  1  0  0  0  0
  8  9  1  0  0  0  0
  9 23  1  0  0  0  0
 10 24  1  0  0  0  0
 10  9  2  0  0  0  0
 11 10  1  0  0  0  0
 12 11  2  0  0  0  0
 12  7  1  0  0  0  0
 13 12  1  0  0  0  0
 14  3  1  0  0  0  0
 15  4  1  0  0  0  0
 17  4  1  0  0  0  0
 18  5  1  0  0  0  0
 21  6  1  0  0  0  0
 25 11  1  0  0  0  0
 26 13  1  0  0  0  0
M  END
