186810027.xyz
 OpenBabel07262113443D
O=C(c1ccc(c(c1F)F)F)Nc1ccccc1S
 27 28  0  0  0  0  0  0  0  0999 V2000
   -3.9680    0.0007    3.4763 O   0  0  0  0  0  0  0  0  0  0  0  0
   -3.6932   -0.0106    2.2871 C   0  0  0  0  0  0  0  0  0  0  0  0
   -4.8101    0.0222    1.2674 C   0  0  0  0  0  0  0  0  0  0  0  0
   -6.1160   -0.0278    1.7864 C   0  0  0  0  0  0  0  0  0  0  0  0
   -7.2388    0.0057    0.9665 C   0  0  0  0  0  0  0  0  0  0  0  0
   -7.0715    0.0967   -0.4131 C   0  0  0  0  0  0  0  0  0  0  0  0
   -5.7916    0.1514   -0.9676 C   0  0  0  0  0  0  0  0  0  0  0  0
   -4.6790    0.1144   -0.1247 C   0  0  0  0  0  0  0  0  0  0  0  0
   -3.4789    0.1725   -0.7232 F   0  0  0  0  0  0  0  0  0  0  0  0
   -5.6263    0.2426   -2.2837 F   0  0  0  0  0  0  0  0  0  0  0  0
   -8.1216    0.1331   -1.2288 F   0  0  0  0  0  0  0  0  0  0  0  0
   -2.4130   -0.0528    1.7981 N   0  0  0  0  0  0  0  0  0  0  0  0
   -1.2141   -0.0727    2.5161 C   0  0  0  0  0  0  0  0  0  0  0  0
   -1.1514   -0.1435    3.9188 C   0  0  0  0  0  0  0  0  0  0  0  0
    0.0845   -0.1510    4.5646 C   0  0  0  0  0  0  0  0  0  0  0  0
    1.2795   -0.0828    3.8412 C   0  0  0  0  0  0  0  0  0  0  0  0
    1.2293   -0.0000    2.4524 C   0  0  0  0  0  0  0  0  0  0  0  0
   -0.0000   -0.0000    1.7741 C   0  0  0  0  0  0  0  0  0  0  0  0
    0.0000    0.0000    0.0000 S   0  0  0  0  0  0  0  0  0  0  0  0
   -6.2108   -0.0919    2.8706 H   0  0  0  0  0  0  0  0  0  0  0  0
   -8.2503   -0.0354    1.3730 H   0  0  0  0  0  0  0  0  0  0  0  0
   -2.2829   -0.0902    0.7882 H   0  0  0  0  0  0  0  0  0  0  0  0
   -2.0792   -0.1895    4.4815 H   0  0  0  0  0  0  0  0  0  0  0  0
    0.1091   -0.2094    5.6555 H   0  0  0  0  0  0  0  0  0  0  0  0
    2.2425   -0.0881    4.3560 H   0  0  0  0  0  0  0  0  0  0  0  0
    2.1449    0.0659    1.8621 H   0  0  0  0  0  0  0  0  0  0  0  0
   -0.6401    2.1618   -0.5338 Au  0  0  0  0  0  0  0  0  0  0  0  0
  2  1  2  0  0  0  0
  3  4  1  0  0  0  0
  3  2  1  0  0  0  0
  4 20  1  0  0  0  0
  5 21  1  0  0  0  0
  5  4  2  0  0  0  0
  6  5  1  0  0  0  0
  7  6  2  0  0  0  0
  7  8  1  0  0  0  0
  8  3  2  0  0  0  0
  9  8  1  0  0  0  0
 10  7  1  0  0  0  0
 11  6  1  0  0  0  0
 12  2  1  0  0  0  0
 12 13  1  0  0  0  0
 13 14  2  0  0  0  0
 14 23  1  0  0  0  0
 14 15  1  0  0  0  0
 15 24  1  0  0  0  0
 16 25  1  0  0  0  0
 16 15  2  0  0  0  0
 17 16  1  0  0  0  0
 18 17  2  0  0  0  0
 18 13  1  0  0  0  0
 19 18  1  0  0  0  0
 22 12  1  0  0  0  0
 26 17  1  0  0  0  0
 27 19  1  0  0  0  0
M  END
