187168913.xyz
 OpenBabel07262113443D
O=C(N1CCN(CC1)C(=O)c1ccccc1S)/C=C/c1ccccc1
 45 47  0  0  0  0  0  0  0  0999 V2000
   -1.0169   -2.8088   -2.0530 O   0  0  0  0  0  0  0  0  0  0  0  0
   -1.9283   -1.9933   -2.0043 C   0  0  0  0  0  0  0  0  0  0  0  0
   -2.9546   -2.1055   -1.0852 N   0  0  0  0  0  0  0  0  0  0  0  0
   -3.9684   -1.0773   -0.8455 C   0  0  0  0  0  0  0  0  0  0  0  0
   -4.3292   -1.0429    0.6457 C   0  0  0  0  0  0  0  0  0  0  0  0
   -3.1045   -1.1550    1.4210 N   0  0  0  0  0  0  0  0  0  0  0  0
   -2.4011   -2.4333    1.2830 C   0  0  0  0  0  0  0  0  0  0  0  0
   -2.8213   -3.1053   -0.0387 C   0  0  0  0  0  0  0  0  0  0  0  0
   -2.5427   -0.0075    1.9020 C   0  0  0  0  0  0  0  0  0  0  0  0
   -3.1100    1.0792    1.8446 O   0  0  0  0  0  0  0  0  0  0  0  0
   -1.1831   -0.1145    2.5446 C   0  0  0  0  0  0  0  0  0  0  0  0
   -1.1028   -0.2122    3.9369 C   0  0  0  0  0  0  0  0  0  0  0  0
    0.1369   -0.2297    4.5815 C   0  0  0  0  0  0  0  0  0  0  0  0
    1.3097   -0.1271    3.8296 C   0  0  0  0  0  0  0  0  0  0  0  0
    1.2404   -0.0000    2.4416 C   0  0  0  0  0  0  0  0  0  0  0  0
   -0.0000   -0.0000    1.7817 C   0  0  0  0  0  0  0  0  0  0  0  0
    0.0000    0.0000    0.0000 S   0  0  0  0  0  0  0  0  0  0  0  0
   -1.9631   -0.7987   -2.8919 C   0  0  0  0  0  0  0  0  0  0  0  0
   -0.8180   -0.3433   -3.4313 C   0  0  0  0  0  0  0  0  0  0  0  0
   -0.6310    0.9183   -4.1489 C   0  0  0  0  0  0  0  0  0  0  0  0
    0.6180    1.1939   -4.7347 C   0  0  0  0  0  0  0  0  0  0  0  0
    0.8537    2.4012   -5.3941 C   0  0  0  0  0  0  0  0  0  0  0  0
   -0.1547    3.3645   -5.4732 C   0  0  0  0  0  0  0  0  0  0  0  0
   -1.4014    3.1109   -4.8880 C   0  0  0  0  0  0  0  0  0  0  0  0
   -1.6371    1.9040   -4.2334 C   0  0  0  0  0  0  0  0  0  0  0  0
   -4.8771   -1.2467   -1.4540 H   0  0  0  0  0  0  0  0  0  0  0  0
   -3.5615   -0.0916   -1.1072 H   0  0  0  0  0  0  0  0  0  0  0  0
   -5.0137   -1.8608    0.9194 H   0  0  0  0  0  0  0  0  0  0  0  0
   -4.8104   -0.0910    0.8954 H   0  0  0  0  0  0  0  0  0  0  0  0
   -2.6213   -3.1023    2.1346 H   0  0  0  0  0  0  0  0  0  0  0  0
   -1.3214   -2.2473    1.2653 H   0  0  0  0  0  0  0  0  0  0  0  0
   -3.7722   -3.6501    0.0794 H   0  0  0  0  0  0  0  0  0  0  0  0
   -2.0546   -3.8210   -0.3553 H   0  0  0  0  0  0  0  0  0  0  0  0
   -2.0249   -0.2768    4.5195 H   0  0  0  0  0  0  0  0  0  0  0  0
    0.1846   -0.3165    5.6693 H   0  0  0  0  0  0  0  0  0  0  0  0
    2.2835   -0.1321    4.3248 H   0  0  0  0  0  0  0  0  0  0  0  0
    2.1502    0.1009    1.8468 H   0  0  0  0  0  0  0  0  0  0  0  0
   -1.2645    1.8484   -0.5802 Au  0  0  0  0  0  0  0  0  0  0  0  0
   -2.8977   -0.2557   -3.0307 H   0  0  0  0  0  0  0  0  0  0  0  0
    0.0773   -0.9499   -3.2625 H   0  0  0  0  0  0  0  0  0  0  0  0
    1.4112    0.4456   -4.6643 H   0  0  0  0  0  0  0  0  0  0  0  0
    1.8310    2.5932   -5.8430 H   0  0  0  0  0  0  0  0  0  0  0  0
    0.0290    4.3131   -5.9829 H   0  0  0  0  0  0  0  0  0  0  0  0
   -2.1925    3.8628   -4.9407 H   0  0  0  0  0  0  0  0  0  0  0  0
   -2.6122    1.7246   -3.7759 H   0  0  0  0  0  0  0  0  0  0  0  0
  1  2  2  0  0  0  0
  2  3  1  0  0  0  0
  3  4  1  0  0  0  0
  3  8  1  0  0  0  0
  4  5  1  0  0  0  0
  5 29  1  0  0  0  0
  5 28  1  0  0  0  0
  5  6  1  0  0  0  0
  6  9  1  0  0  0  0
  7  6  1  0  0  0  0
  7 30  1  0  0  0  0
  8 32  1  0  0  0  0
  8  7  1  0  0  0  0
  9 11  1  0  0  0  0
 10  9  2  0  0  0  0
 11 12  2  0  0  0  0
 12 34  1  0  0  0  0
 12 13  1  0  0  0  0
 13 35  1  0  0  0  0
 14 36  1  0  0  0  0
 14 13  2  0  0  0  0
 15 14  1  0  0  0  0
 16 15  2  0  0  0  0
 16 11  1  0  0  0  0
 17 16  1  0  0  0  0
 18  2  1  0  0  0  0
 19 40  1  0  0  0  0
 19 18  2  0  0  0  0
 20 19  1  0  0  0  0
 21 41  1  0  0  0  0
 21 20  2  0  0  0  0
 22 21  1  0  0  0  0
 23 22  2  0  0  0  0
 23 24  1  0  0  0  0
 24 25  2  0  0  0  0
 25 20  1  0  0  0  0
 25 45  1  0  0  0  0
 26  4  1  0  0  0  0
 27  4  1  0  0  0  0
 31  7  1  0  0  0  0
 33  8  1  0  0  0  0
 37 15  1  0  0  0  0
 38 17  1  0  0  0  0
 39 18  1  0  0  0  0
 42 22  1  0  0  0  0
 43 23  1  0  0  0  0
 44 24  1  0  0  0  0
M  END
