187168994.xyz
 OpenBabel07262113443D
O=C(c1ccc(cc1)C(C)C)N1CCN(CC1)C(=O)c1ccccc1S
 50 52  0  0  0  0  0  0  0  0999 V2000
   -3.6297    5.1387   -0.5780 O   0  0  0  0  0  0  0  0  0  0  0  0
   -4.5347    4.3644   -0.3031 C   0  0  0  0  0  0  0  0  0  0  0  0
   -5.8145    4.3833   -1.0888 C   0  0  0  0  0  0  0  0  0  0  0  0
   -5.7374    4.5525   -2.4789 C   0  0  0  0  0  0  0  0  0  0  0  0
   -6.8962    4.6468   -3.2452 C   0  0  0  0  0  0  0  0  0  0  0  0
   -8.1673    4.6065   -2.6475 C   0  0  0  0  0  0  0  0  0  0  0  0
   -8.2344    4.4698   -1.2542 C   0  0  0  0  0  0  0  0  0  0  0  0
   -7.0771    4.3551   -0.4819 C   0  0  0  0  0  0  0  0  0  0  0  0
   -9.4324    4.7178   -3.4809 C   0  0  0  0  0  0  0  0  0  0  0  0
   -9.5682    3.5426   -4.4609 C   0  0  0  0  0  0  0  0  0  0  0  0
   -9.5130    6.0668   -4.2114 C   0  0  0  0  0  0  0  0  0  0  0  0
   -4.4432    3.4796    0.7544 N   0  0  0  0  0  0  0  0  0  0  0  0
   -3.2425    3.5236    1.5806 C   0  0  0  0  0  0  0  0  0  0  0  0
   -2.2911    2.3777    1.2353 C   0  0  0  0  0  0  0  0  0  0  0  0
   -3.0010    1.1066    1.3013 N   0  0  0  0  0  0  0  0  0  0  0  0
   -4.2167    1.0440    0.5043 C   0  0  0  0  0  0  0  0  0  0  0  0
   -5.1524    2.2073    0.8402 C   0  0  0  0  0  0  0  0  0  0  0  0
   -2.5384   -0.0232    1.9058 C   0  0  0  0  0  0  0  0  0  0  0  0
   -3.1712   -1.0766    1.9200 O   0  0  0  0  0  0  0  0  0  0  0  0
   -1.1821    0.0551    2.5574 C   0  0  0  0  0  0  0  0  0  0  0  0
   -1.0992    0.0741    3.9530 C   0  0  0  0  0  0  0  0  0  0  0  0
    0.1418    0.0966    4.5941 C   0  0  0  0  0  0  0  0  0  0  0  0
    1.3135    0.0678    3.8334 C   0  0  0  0  0  0  0  0  0  0  0  0
    1.2427    0.0000    2.4413 C   0  0  0  0  0  0  0  0  0  0  0  0
   -0.0000   -0.0000    1.7861 C   0  0  0  0  0  0  0  0  0  0  0  0
    0.0000    0.0000    0.0000 S   0  0  0  0  0  0  0  0  0  0  0  0
   -4.7530    4.6155   -2.9463 H   0  0  0  0  0  0  0  0  0  0  0  0
   -6.8093    4.7639   -4.3281 H   0  0  0  0  0  0  0  0  0  0  0  0
   -9.2120    4.4580   -0.7645 H   0  0  0  0  0  0  0  0  0  0  0  0
   -7.1564    4.2652    0.6039 H   0  0  0  0  0  0  0  0  0  0  0  0
  -10.2833    4.6671   -2.7802 H   0  0  0  0  0  0  0  0  0  0  0  0
   -8.7515    3.5446   -5.2009 H   0  0  0  0  0  0  0  0  0  0  0  0
  -10.5192    3.6037   -5.0140 H   0  0  0  0  0  0  0  0  0  0  0  0
   -9.5390    2.5771   -3.9327 H   0  0  0  0  0  0  0  0  0  0  0  0
   -9.4410    6.9078   -3.5049 H   0  0  0  0  0  0  0  0  0  0  0  0
   -8.6961    6.1735   -4.9433 H   0  0  0  0  0  0  0  0  0  0  0  0
  -10.4649    6.1571   -4.7590 H   0  0  0  0  0  0  0  0  0  0  0  0
   -3.5434    3.4436    2.6401 H   0  0  0  0  0  0  0  0  0  0  0  0
   -2.7484    4.4872    1.4127 H   0  0  0  0  0  0  0  0  0  0  0  0
   -1.4471    2.3618    1.9347 H   0  0  0  0  0  0  0  0  0  0  0  0
   -1.8857    2.5207    0.2187 H   0  0  0  0  0  0  0  0  0  0  0  0
   -4.6982    0.0785    0.7011 H   0  0  0  0  0  0  0  0  0  0  0  0
   -3.9460    1.0912   -0.5676 H   0  0  0  0  0  0  0  0  0  0  0  0
   -6.0010    2.1999    0.1485 H   0  0  0  0  0  0  0  0  0  0  0  0
   -5.5443    2.0806    1.8648 H   0  0  0  0  0  0  0  0  0  0  0  0
   -2.0215    0.0793    4.5385 H   0  0  0  0  0  0  0  0  0  0  0  0
    0.1924    0.1273    5.6847 H   0  0  0  0  0  0  0  0  0  0  0  0
    2.2891    0.0764    4.3252 H   0  0  0  0  0  0  0  0  0  0  0  0
    2.1530   -0.0615    1.8419 H   0  0  0  0  0  0  0  0  0  0  0  0
   -1.3942   -1.7887   -0.4610 Au  0  0  0  0  0  0  0  0  0  0  0  0
  1  2  2  0  0  0  0
  2 12  1  0  0  0  0
  3  8  1  0  0  0  0
  3  2  1  0  0  0  0
  4  3  2  0  0  0  0
  5  6  2  0  0  0  0
  5  4  1  0  0  0  0
  6  7  1  0  0  0  0
  7 29  1  0  0  0  0
  7  8  2  0  0  0  0
  8 30  1  0  0  0  0
  9 31  1  0  0  0  0
  9  6  1  0  0  0  0
 10 34  1  0  0  0  0
 10  9  1  0  0  0  0
 11 35  1  0  0  0  0
 11  9  1  0  0  0  0
 12 17  1  0  0  0  0
 12 13  1  0  0  0  0
 13 38  1  0  0  0  0
 14 15  1  0  0  0  0
 14 13  1  0  0  0  0
 14 40  1  0  0  0  0
 15 18  1  0  0  0  0
 16 42  1  0  0  0  0
 16 17  1  0  0  0  0
 16 15  1  0  0  0  0
 17 45  1  0  0  0  0
 18 19  2  0  0  0  0
 18 20  1  0  0  0  0
 20 21  2  0  0  0  0
 21 46  1  0  0  0  0
 21 22  1  0  0  0  0
 22 47  1  0  0  0  0
 23 48  1  0  0  0  0
 23 22  2  0  0  0  0
 24 23  1  0  0  0  0
 25 24  2  0  0  0  0
 25 20  1  0  0  0  0
 26 25  1  0  0  0  0
 27  4  1  0  0  0  0
 28  5  1  0  0  0  0
 32 10  1  0  0  0  0
 33 10  1  0  0  0  0
 36 11  1  0  0  0  0
 37 11  1  0  0  0  0
 39 13  1  0  0  0  0
 41 14  1  0  0  0  0
 43 16  1  0  0  0  0
 44 17  1  0  0  0  0
 49 24  1  0  0  0  0
 50 26  1  0  0  0  0
M  END
