187168967.xyz
 OpenBabel07262113443D
O=C(N1CCN(CC1)C(=O)c1ccccc1S)N(C)C
 39 40  0  0  0  0  0  0  0  0999 V2000
    3.7711    3.8315   -2.3825 O   0  0  0  0  0  0  0  0  0  0  0  0
    4.5893    3.5779   -1.5113 C   0  0  0  0  0  0  0  0  0  0  0  0
    4.2174    2.9720   -0.3178 N   0  0  0  0  0  0  0  0  0  0  0  0
    5.0700    2.0029    0.3709 C   0  0  0  0  0  0  0  0  0  0  0  0
    4.3435    0.6833    0.5984 C   0  0  0  0  0  0  0  0  0  0  0  0
    3.1096    0.8978    1.3501 N   0  0  0  0  0  0  0  0  0  0  0  0
    2.5076    2.2271    1.2637 C   0  0  0  0  0  0  0  0  0  0  0  0
    2.7757    2.8297   -0.1066 C   0  0  0  0  0  0  0  0  0  0  0  0
    2.5325   -0.1845    1.9326 C   0  0  0  0  0  0  0  0  0  0  0  0
    3.0754   -1.2892    1.9316 O   0  0  0  0  0  0  0  0  0  0  0  0
    1.1782   -0.0000    2.5671 C   0  0  0  0  0  0  0  0  0  0  0  0
    1.0859    0.0587    3.9609 C   0  0  0  0  0  0  0  0  0  0  0  0
   -0.1559    0.1638    4.5922 C   0  0  0  0  0  0  0  0  0  0  0  0
   -1.3216    0.1826    3.8228 C   0  0  0  0  0  0  0  0  0  0  0  0
   -1.2448    0.0839    2.4328 C   0  0  0  0  0  0  0  0  0  0  0  0
   -0.0000    0.0000    1.7866 C   0  0  0  0  0  0  0  0  0  0  0  0
    0.0000    0.0000    0.0000 S   0  0  0  0  0  0  0  0  0  0  0  0
    5.9440    3.8621   -1.6470 N   0  0  0  0  0  0  0  0  0  0  0  0
    6.7423    4.3571   -0.5389 C   0  0  0  0  0  0  0  0  0  0  0  0
    6.3953    4.2704   -2.9640 C   0  0  0  0  0  0  0  0  0  0  0  0
    5.4217    2.3925    1.3440 H   0  0  0  0  0  0  0  0  0  0  0  0
    5.9601    1.8124   -0.2428 H   0  0  0  0  0  0  0  0  0  0  0  0
    4.1062    0.2036   -0.3698 H   0  0  0  0  0  0  0  0  0  0  0  0
    4.9799   -0.0180    1.1550 H   0  0  0  0  0  0  0  0  0  0  0  0
    2.9122    2.8854    2.0540 H   0  0  0  0  0  0  0  0  0  0  0  0
    1.4265    2.1484    1.4160 H   0  0  0  0  0  0  0  0  0  0  0  0
    2.3146    2.1971   -0.8837 H   0  0  0  0  0  0  0  0  0  0  0  0
    2.3016    3.8188   -0.1827 H   0  0  0  0  0  0  0  0  0  0  0  0
    2.0027    0.0246    4.5543 H   0  0  0  0  0  0  0  0  0  0  0  0
   -0.2118    0.2207    5.6814 H   0  0  0  0  0  0  0  0  0  0  0  0
   -2.2991    0.2543    4.3057 H   0  0  0  0  0  0  0  0  0  0  0  0
   -2.1536    0.0644    1.8281 H   0  0  0  0  0  0  0  0  0  0  0  0
    1.4013   -1.7798   -0.4793 Au  0  0  0  0  0  0  0  0  0  0  0  0
    7.6609    3.7626   -0.3872 H   0  0  0  0  0  0  0  0  0  0  0  0
    7.0461    5.4038   -0.7260 H   0  0  0  0  0  0  0  0  0  0  0  0
    6.1608    4.3454    0.3900 H   0  0  0  0  0  0  0  0  0  0  0  0
    6.3146    5.3648   -3.1107 H   0  0  0  0  0  0  0  0  0  0  0  0
    5.7814    3.7833   -3.7303 H   0  0  0  0  0  0  0  0  0  0  0  0
    7.4499    3.9801   -3.0985 H   0  0  0  0  0  0  0  0  0  0  0  0
  1  2  2  0  0  0  0
  2  3  1  0  0  0  0
  3  8  1  0  0  0  0
  3  4  1  0  0  0  0
  4  5  1  0  0  0  0
  4 21  1  0  0  0  0
  5 24  1  0  0  0  0
  5  6  1  0  0  0  0
  6  9  1  0  0  0  0
  7  6  1  0  0  0  0
  7 26  1  0  0  0  0
  7 25  1  0  0  0  0
  8  7  1  0  0  0  0
  9 11  1  0  0  0  0
 10  9  2  0  0  0  0
 11 12  2  0  0  0  0
 12 29  1  0  0  0  0
 12 13  1  0  0  0  0
 13 30  1  0  0  0  0
 14 31  1  0  0  0  0
 14 13  2  0  0  0  0
 15 14  1  0  0  0  0
 16 15  2  0  0  0  0
 16 11  1  0  0  0  0
 17 16  1  0  0  0  0
 18  2  1  0  0  0  0
 18 19  1  0  0  0  0
 19 34  1  0  0  0  0
 19 36  1  0  0  0  0
 20 18  1  0  0  0  0
 22  4  1  0  0  0  0
 23  5  1  0  0  0  0
 27  8  1  0  0  0  0
 28  8  1  0  0  0  0
 32 15  1  0  0  0  0
 33 17  1  0  0  0  0
 35 19  1  0  0  0  0
 37 20  1  0  0  0  0
 38 20  1  0  0  0  0
 39 20  1  0  0  0  0
M  END
