187120574.xyz
 OpenBabel07262113443D
O=C(c1ccccc1S)NC1CCN(CC1)C(=O)c1ccccc1Cl
 44 46  0  0  0  0  0  0  0  0999 V2000
    3.4018   -0.6026    3.0931 O   0  0  0  0  0  0  0  0  0  0  0  0
    2.5856   -0.2171    2.2616 C   0  0  0  0  0  0  0  0  0  0  0  0
    1.1372    0.0000    2.6540 C   0  0  0  0  0  0  0  0  0  0  0  0
    0.9363    0.1217    4.0397 C   0  0  0  0  0  0  0  0  0  0  0  0
   -0.3321    0.2639    4.5937 C   0  0  0  0  0  0  0  0  0  0  0  0
   -1.4489    0.2620    3.7549 C   0  0  0  0  0  0  0  0  0  0  0  0
   -1.2782    0.1222    2.3793 C   0  0  0  0  0  0  0  0  0  0  0  0
   -0.0000   -0.0000    1.8036 C   0  0  0  0  0  0  0  0  0  0  0  0
    0.0000    0.0000    0.0000 S   0  0  0  0  0  0  0  0  0  0  0  0
    2.9221    0.0105    0.9664 N   0  0  0  0  0  0  0  0  0  0  0  0
    4.0940   -0.5878    0.3472 C   0  0  0  0  0  0  0  0  0  0  0  0
    4.1486   -2.1036    0.6255 C   0  0  0  0  0  0  0  0  0  0  0  0
    5.1800   -2.8121   -0.2430 C   0  0  0  0  0  0  0  0  0  0  0  0
    4.9211   -2.5275   -1.6577 N   0  0  0  0  0  0  0  0  0  0  0  0
    5.0592   -1.1016   -1.9614 C   0  0  0  0  0  0  0  0  0  0  0  0
    4.0383   -0.2917   -1.1602 C   0  0  0  0  0  0  0  0  0  0  0  0
    4.0202   -3.2401   -2.4081 C   0  0  0  0  0  0  0  0  0  0  0  0
    3.4476   -2.7884   -3.3864 O   0  0  0  0  0  0  0  0  0  0  0  0
    3.8023   -4.6777   -1.9949 C   0  0  0  0  0  0  0  0  0  0  0  0
    4.8937   -5.5564   -1.8983 C   0  0  0  0  0  0  0  0  0  0  0  0
    4.7200   -6.9013   -1.5746 C   0  0  0  0  0  0  0  0  0  0  0  0
    3.4383   -7.3971   -1.3226 C   0  0  0  0  0  0  0  0  0  0  0  0
    2.3335   -6.5500   -1.4177 C   0  0  0  0  0  0  0  0  0  0  0  0
    2.5304   -5.2140   -1.7672 C   0  0  0  0  0  0  0  0  0  0  0  0
    1.0514   -4.2518   -1.9807 Cl  0  0  0  0  0  0  0  0  0  0  0  0
    1.8260    0.0885    4.6700 H   0  0  0  0  0  0  0  0  0  0  0  0
   -0.4496    0.3669    5.6749 H   0  0  0  0  0  0  0  0  0  0  0  0
   -2.4556    0.3616    4.1685 H   0  0  0  0  0  0  0  0  0  0  0  0
   -2.1450    0.1080    1.7163 H   0  0  0  0  0  0  0  0  0  0  0  0
    0.6787   -2.0935   -0.7208 Au  0  0  0  0  0  0  0  0  0  0  0  0
    2.1638    0.2866    0.3426 H   0  0  0  0  0  0  0  0  0  0  0  0
    5.0089   -0.1371    0.7742 H   0  0  0  0  0  0  0  0  0  0  0  0
    4.3445   -2.2698    1.6928 H   0  0  0  0  0  0  0  0  0  0  0  0
    3.1528   -2.5306    0.4062 H   0  0  0  0  0  0  0  0  0  0  0  0
    5.1623   -3.8910   -0.0581 H   0  0  0  0  0  0  0  0  0  0  0  0
    6.1995   -2.4608   -0.0117 H   0  0  0  0  0  0  0  0  0  0  0  0
    6.0900   -0.8029   -1.7091 H   0  0  0  0  0  0  0  0  0  0  0  0
    4.9053   -0.9588   -3.0370 H   0  0  0  0  0  0  0  0  0  0  0  0
    4.1790    0.7866   -1.3368 H   0  0  0  0  0  0  0  0  0  0  0  0
    3.0353   -0.5511   -1.5381 H   0  0  0  0  0  0  0  0  0  0  0  0
    5.8939   -5.1614   -2.0882 H   0  0  0  0  0  0  0  0  0  0  0  0
    5.5868   -7.5625   -1.5148 H   0  0  0  0  0  0  0  0  0  0  0  0
    3.2911   -8.4458   -1.0565 H   0  0  0  0  0  0  0  0  0  0  0  0
    1.3237   -6.9181   -1.2334 H   0  0  0  0  0  0  0  0  0  0  0  0
  2  3  1  0  0  0  0
  2  1  2  0  0  0  0
  3  4  2  0  0  0  0
  4  5  1  0  0  0  0
  4 26  1  0  0  0  0
  5 27  1  0  0  0  0
  6 28  1  0  0  0  0
  6  5  2  0  0  0  0
  7  6  1  0  0  0  0
  8  7  2  0  0  0  0
  8  3  1  0  0  0  0
  9  8  1  0  0  0  0
 10  2  1  0  0  0  0
 11 12  1  0  0  0  0
 11 32  1  0  0  0  0
 11 10  1  0  0  0  0
 12 33  1  0  0  0  0
 13 35  1  0  0  0  0
 13 36  1  0  0  0  0
 13 12  1  0  0  0  0
 14 13  1  0  0  0  0
 15 37  1  0  0  0  0
 15 14  1  0  0  0  0
 15 16  1  0  0  0  0
 16 11  1  0  0  0  0
 17 19  1  0  0  0  0
 17 14  1  0  0  0  0
 18 17  2  0  0  0  0
 19 20  2  0  0  0  0
 19 24  1  0  0  0  0
 20 21  1  0  0  0  0
 21 42  1  0  0  0  0
 21 22  2  0  0  0  0
 22 43  1  0  0  0  0
 23 22  1  0  0  0  0
 23 44  1  0  0  0  0
 24 23  2  0  0  0  0
 25 24  1  0  0  0  0
 29  7  1  0  0  0  0
 30  9  1  0  0  0  0
 31 10  1  0  0  0  0
 34 12  1  0  0  0  0
 38 15  1  0  0  0  0
 39 16  1  0  0  0  0
 40 16  1  0  0  0  0
 41 20  1  0  0  0  0
M  END
