187423865.xyz
 OpenBabel07262113443D
O=C(Nc1ccccc1S)Nc1ccc(cc1N)C
 34 35  0  0  0  0  0  0  0  0999 V2000
    4.2789   -0.4816    0.8918 O   0  0  0  0  0  0  0  0  0  0  0  0
    3.1598   -0.7653    1.2888 C   0  0  0  0  0  0  0  0  0  0  0  0
    2.4572    0.1219    2.1116 N   0  0  0  0  0  0  0  0  0  0  0  0
    1.1457    0.0000    2.6187 C   0  0  0  0  0  0  0  0  0  0  0  0
    0.9712   -0.0416    4.0121 C   0  0  0  0  0  0  0  0  0  0  0  0
   -0.2948   -0.1031    4.5880 C   0  0  0  0  0  0  0  0  0  0  0  0
   -1.4230   -0.1285    3.7620 C   0  0  0  0  0  0  0  0  0  0  0  0
   -1.2722   -0.0660    2.3799 C   0  0  0  0  0  0  0  0  0  0  0  0
   -0.0000    0.0000    1.7757 C   0  0  0  0  0  0  0  0  0  0  0  0
    0.0000    0.0000    0.0000 S   0  0  0  0  0  0  0  0  0  0  0  0
    2.4850   -1.9200    1.0062 N   0  0  0  0  0  0  0  0  0  0  0  0
    2.7609   -2.8283   -0.0320 C   0  0  0  0  0  0  0  0  0  0  0  0
    3.7347   -2.6396   -1.0159 C   0  0  0  0  0  0  0  0  0  0  0  0
    3.8662   -3.5637   -2.0569 C   0  0  0  0  0  0  0  0  0  0  0  0
    3.0389   -4.6884   -2.1412 C   0  0  0  0  0  0  0  0  0  0  0  0
    2.0889   -4.8858   -1.1272 C   0  0  0  0  0  0  0  0  0  0  0  0
    1.9444   -3.9855   -0.0696 C   0  0  0  0  0  0  0  0  0  0  0  0
    0.9716   -4.1444    0.9373 N   0  0  0  0  0  0  0  0  0  0  0  0
    3.1553   -5.6726   -3.2778 C   0  0  0  0  0  0  0  0  0  0  0  0
    3.0715    0.7985    2.5522 H   0  0  0  0  0  0  0  0  0  0  0  0
    1.8644   -0.0359    4.6416 H   0  0  0  0  0  0  0  0  0  0  0  0
   -0.3998   -0.1364    5.6745 H   0  0  0  0  0  0  0  0  0  0  0  0
   -2.4249   -0.1773    4.1946 H   0  0  0  0  0  0  0  0  0  0  0  0
   -2.1521   -0.0469    1.7338 H   0  0  0  0  0  0  0  0  0  0  0  0
    1.7875    1.3378   -0.6068 Au  0  0  0  0  0  0  0  0  0  0  0  0
    1.5341   -1.9976    1.3598 H   0  0  0  0  0  0  0  0  0  0  0  0
    4.3820   -1.7679   -0.9525 H   0  0  0  0  0  0  0  0  0  0  0  0
    4.6306   -3.3977   -2.8202 H   0  0  0  0  0  0  0  0  0  0  0  0
    1.4488   -5.7735   -1.1511 H   0  0  0  0  0  0  0  0  0  0  0  0
    0.4112   -4.9836    0.8241 H   0  0  0  0  0  0  0  0  0  0  0  0
    1.3629   -4.1219    1.8786 H   0  0  0  0  0  0  0  0  0  0  0  0
    2.2714   -5.6286   -3.9374 H   0  0  0  0  0  0  0  0  0  0  0  0
    4.0417   -5.4685   -3.8961 H   0  0  0  0  0  0  0  0  0  0  0  0
    3.2305   -6.7092   -2.9100 H   0  0  0  0  0  0  0  0  0  0  0  0
  1  2  2  0  0  0  0
  2  3  1  0  0  0  0
  3 20  1  0  0  0  0
  3  4  1  0  0  0  0
  4  5  2  0  0  0  0
  5  6  1  0  0  0  0
  5 21  1  0  0  0  0
  6 22  1  0  0  0  0
  7 23  1  0  0  0  0
  7  6  2  0  0  0  0
  8  7  1  0  0  0  0
  9  8  2  0  0  0  0
  9  4  1  0  0  0  0
 10  9  1  0  0  0  0
 11  2  1  0  0  0  0
 11 26  1  0  0  0  0
 12 11  1  0  0  0  0
 13 27  1  0  0  0  0
 13 12  2  0  0  0  0
 14 13  1  0  0  0  0
 15 14  2  0  0  0  0
 15 16  1  0  0  0  0
 16 17  2  0  0  0  0
 17 12  1  0  0  0  0
 17 18  1  0  0  0  0
 18 31  1  0  0  0  0
 19 34  1  0  0  0  0
 19 15  1  0  0  0  0
 24  8  1  0  0  0  0
 25 10  1  0  0  0  0
 28 14  1  0  0  0  0
 29 16  1  0  0  0  0
 30 18  1  0  0  0  0
 32 19  1  0  0  0  0
 33 19  1  0  0  0  0
M  END
