187423518.xyz
 OpenBabel07262113443D
Nc1ccc(cc1)N(C(=O)Nc1ccccc1S)c1ccccc1
 41 44  0  0  1  0  0  0  0  0999 V2000
    3.6441   -2.3670   -3.5273 N   0  0  0  0  0  0  0  0  0  0  0  0
    3.8411   -2.0217   -2.2223 C   0  0  0  0  0  0  0  0  0  0  0  0
    4.4570   -0.7973   -1.8715 C   0  0  0  0  0  0  0  0  0  0  0  0
    4.7098   -0.4808   -0.5419 C   0  0  0  0  0  0  0  0  0  0  0  0
    4.3849   -1.3646    0.5010 C   0  0  0  0  0  0  0  0  0  0  0  0
    3.7879   -2.5881    0.1737 C   0  0  0  0  0  0  0  0  0  0  0  0
    3.4536   -2.9056   -1.1663 C   0  0  1  0  0  0  0  0  0  0  0  0
    4.6153   -1.0273    1.8697 N   0  0  0  0  0  0  0  0  0  0  0  0
    3.5935   -0.5252    2.7068 C   0  0  0  0  0  0  0  0  0  0  0  0
    3.7598   -0.4263    3.9080 O   0  0  0  0  0  0  0  0  0  0  0  0
    2.4266   -0.1796    2.0535 N   0  0  0  0  0  0  0  0  0  0  0  0
    1.1527   -0.0000    2.6303 C   0  0  0  0  0  0  0  0  0  0  0  0
    0.9832    0.1506    4.0183 C   0  0  0  0  0  0  0  0  0  0  0  0
   -0.2877    0.2873    4.5754 C   0  0  0  0  0  0  0  0  0  0  0  0
   -1.4216    0.2757    3.7632 C   0  0  0  0  0  0  0  0  0  0  0  0
   -1.2666    0.1278    2.3865 C   0  0  0  0  0  0  0  0  0  0  0  0
   -0.0000   -0.0000    1.7926 C   0  0  0  0  0  0  0  0  0  0  0  0
    0.0000    0.0000    0.0000 S   0  0  0  0  0  0  0  0  0  0  0  0
    5.8572   -1.4657    2.4389 C   0  0  0  0  0  0  0  0  0  0  0  0
    7.0549   -1.1829    1.7670 C   0  0  0  0  0  0  0  0  0  0  0  0
    8.2739   -1.6448    2.2664 C   0  0  0  0  0  0  0  0  0  0  0  0
    8.3146   -2.3860    3.4492 C   0  0  0  0  0  0  0  0  0  0  0  0
    7.1218   -2.6670    4.1212 C   0  0  0  0  0  0  0  0  0  0  0  0
    5.8980   -2.2192    3.6220 C   0  0  0  0  0  0  0  0  0  0  0  0
    3.7010   -1.6469   -4.2359 H   0  0  0  0  0  0  0  0  0  0  0  0
    3.0319   -3.1435   -3.7418 H   0  0  0  0  0  0  0  0  0  0  0  0
    4.7328   -0.0946   -2.6606 H   0  0  0  0  0  0  0  0  0  0  0  0
    5.1529    0.4847   -0.2913 H   0  0  0  0  0  0  0  0  0  0  0  0
    3.5615   -3.2996    0.9700 H   0  0  0  0  0  0  0  0  0  0  0  0
    3.1042   -3.9120   -1.4113 H   0  0  0  0  0  0  0  0  0  0  0  0
    2.4232   -0.1768    1.0383 H   0  0  0  0  0  0  0  0  0  0  0  0
    1.8682    0.1599    4.6474 H   0  0  0  0  0  0  0  0  0  0  0  0
   -0.3827    0.4048    5.6576 H   0  0  0  0  0  0  0  0  0  0  0  0
   -2.4207    0.3770    4.1931 H   0  0  0  0  0  0  0  0  0  0  0  0
   -2.1405    0.1084    1.7323 H   0  0  0  0  0  0  0  0  0  0  0  0
    1.4342   -1.7066   -0.6423 Au  0  0  0  0  0  0  0  0  0  0  0  0
    7.0347   -0.6005    0.8455 H   0  0  0  0  0  0  0  0  0  0  0  0
    9.1969   -1.4148    1.7287 H   0  0  0  0  0  0  0  0  0  0  0  0
    9.2684   -2.7425    3.8447 H   0  0  0  0  0  0  0  0  0  0  0  0
    7.1392   -3.2484    5.0463 H   0  0  0  0  0  0  0  0  0  0  0  0
    4.9747   -2.4342    4.1550 H   0  0  0  0  0  0  0  0  0  0  0  0
  1  2  1  0  0  0  0
  2  3  2  0  0  0  0
  2  7  1  0  0  0  0
  3  4  1  0  0  0  0
  4 28  1  0  0  0  0
  4  5  2  0  0  0  0
  5  8  1  0  0  0  0
  6  5  1  0  0  0  0
  6 29  1  0  0  0  0
  7 30  1  6  0  0  0
  7 36  1  0  0  0  0
  7  6  1  0  0  0  0
  8 19  1  0  0  0  0
  8  9  1  0  0  0  0
  9 10  2  0  0  0  0
 11 12  1  0  0  0  0
 11  9  1  0  0  0  0
 12 13  2  0  0  0  0
 13 14  1  0  0  0  0
 13 32  1  0  0  0  0
 14 33  1  0  0  0  0
 15 34  1  0  0  0  0
 15 14  2  0  0  0  0
 16 15  1  0  0  0  0
 17 16  2  0  0  0  0
 17 12  1  0  0  0  0
 18 17  1  0  0  0  0
 19 24  2  0  0  0  0
 20 21  2  0  0  0  0
 20 19  1  0  0  0  0
 21 22  1  0  0  0  0
 22 39  1  0  0  0  0
 22 23  2  0  0  0  0
 23 40  1  0  0  0  0
 24 23  1  0  0  0  0
 24 41  1  0  0  0  0
 25  1  1  0  0  0  0
 26  1  1  0  0  0  0
 27  3  1  0  0  0  0
 31 11  1  0  0  0  0
 35 16  1  0  0  0  0
 36 18  1  0  0  0  0
 37 20  1  0  0  0  0
 38 21  1  0  0  0  0
M  RAD  1   6   2
M  END
