187423063.xyz
 OpenBabel07262113443D
O=C(Nc1ccccc1S)Nc1ccc(cc1)C(=O)O
 32 33  0  0  0  0  0  0  0  0999 V2000
   -3.9998   -0.2338    3.4400 O   0  0  0  0  0  0  0  0  0  0  0  0
   -3.6997   -0.1374    2.2647 C   0  0  0  0  0  0  0  0  0  0  0  0
   -2.4122   -0.0571    1.7786 N   0  0  0  0  0  0  0  0  0  0  0  0
   -1.2213   -0.0636    2.5048 C   0  0  0  0  0  0  0  0  0  0  0  0
   -1.1690   -0.1194    3.9089 C   0  0  0  0  0  0  0  0  0  0  0  0
    0.0617   -0.1152    4.5629 C   0  0  0  0  0  0  0  0  0  0  0  0
    1.2649   -0.0596    3.8492 C   0  0  0  0  0  0  0  0  0  0  0  0
    1.2257    0.0000    2.4604 C   0  0  0  0  0  0  0  0  0  0  0  0
   -0.0000   -0.0000    1.7729 C   0  0  0  0  0  0  0  0  0  0  0  0
    0.0000    0.0000    0.0000 S   0  0  0  0  0  0  0  0  0  0  0  0
   -4.7040   -0.1370    1.2943 N   0  0  0  0  0  0  0  0  0  0  0  0
   -4.6776    0.0830   -0.0861 C   0  0  0  0  0  0  0  0  0  0  0  0
   -5.6083   -0.5966   -0.8981 C   0  0  0  0  0  0  0  0  0  0  0  0
   -5.6259   -0.3993   -2.2714 C   0  0  0  0  0  0  0  0  0  0  0  0
   -4.7194    0.4812   -2.8850 C   0  0  0  0  0  0  0  0  0  0  0  0
   -3.7949    1.1548   -2.0757 C   0  0  0  0  0  0  0  0  0  0  0  0
   -3.7816    0.9789   -0.6944 C   0  0  0  0  0  0  0  0  0  0  0  0
   -4.7759    0.6153   -4.3764 C   0  0  0  0  0  0  0  0  0  0  0  0
   -5.3671   -0.1573   -5.0840 O   0  0  0  0  0  0  0  0  0  0  0  0
   -4.1238    1.6720   -4.9146 O   0  0  0  0  0  0  0  0  0  0  0  0
   -2.2664   -0.1168    0.7712 H   0  0  0  0  0  0  0  0  0  0  0  0
   -2.1020   -0.1694    4.4637 H   0  0  0  0  0  0  0  0  0  0  0  0
    0.0774   -0.1589    5.6546 H   0  0  0  0  0  0  0  0  0  0  0  0
    2.2230   -0.0609    4.3727 H   0  0  0  0  0  0  0  0  0  0  0  0
    2.1457    0.0503    1.8755 H   0  0  0  0  0  0  0  0  0  0  0  0
   -0.2204    2.2435   -0.5378 Au  0  0  0  0  0  0  0  0  0  0  0  0
   -5.5901   -0.4242    1.6965 H   0  0  0  0  0  0  0  0  0  0  0  0
   -6.3087   -1.2964   -0.4359 H   0  0  0  0  0  0  0  0  0  0  0  0
   -6.3330   -0.9363   -2.9057 H   0  0  0  0  0  0  0  0  0  0  0  0
   -3.0441    1.8244   -2.5064 H   0  0  0  0  0  0  0  0  0  0  0  0
   -3.0754    1.5492   -0.0936 H   0  0  0  0  0  0  0  0  0  0  0  0
   -3.8175    2.2701   -4.2197 H   0  0  0  0  0  0  0  0  0  0  0  0
  2  1  2  0  0  0  0
  3  2  1  0  0  0  0
  3  4  1  0  0  0  0
  4  5  2  0  0  0  0
  5 22  1  0  0  0  0
  5  6  1  0  0  0  0
  6 23  1  0  0  0  0
  7 24  1  0  0  0  0
  7  6  2  0  0  0  0
  8  7  1  0  0  0  0
  9  8  2  0  0  0  0
  9  4  1  0  0  0  0
 10  9  1  0  0  0  0
 11 27  1  0  0  0  0
 11  2  1  0  0  0  0
 12 11  1  0  0  0  0
 13 28  1  0  0  0  0
 13 12  2  0  0  0  0
 14 13  1  0  0  0  0
 15 14  2  0  0  0  0
 15 16  1  0  0  0  0
 16 17  2  0  0  0  0
 17 31  1  0  0  0  0
 17 12  1  0  0  0  0
 18 15  1  0  0  0  0
 19 18  2  0  0  0  0
 20 18  1  0  0  0  0
 20 32  1  0  0  0  0
 21  3  1  0  0  0  0
 25  8  1  0  0  0  0
 26 10  1  0  0  0  0
 29 14  1  0  0  0  0
 30 16  1  0  0  0  0
M  END
