187423723.xyz
 OpenBabel07262113443D
O=C(Nc1cccc2c1nccc2)Nc1ccccc1S
 34 36  0  0  1  0  0  0  0  0999 V2000
   -4.0211   -0.0206    3.4293 O   0  0  0  0  0  0  0  0  0  0  0  0
   -3.7101   -0.0276    2.2513 C   0  0  0  0  0  0  0  0  0  0  0  0
   -4.6120   -0.1031    1.2099 N   0  0  0  0  0  0  0  0  0  0  0  0
   -5.9965   -0.1762    1.2823 C   0  0  0  0  0  0  0  0  0  0  0  0
   -6.7594   -0.1456    2.4411 C   0  0  0  0  0  0  0  0  0  0  0  0
   -8.1703   -0.2254    2.3600 C   0  0  0  0  0  0  0  0  0  0  0  0
   -8.8290   -0.3353    1.1533 C   0  0  0  0  0  0  0  0  0  0  0  0
   -8.0783   -0.3719   -0.0516 C   0  0  1  0  0  0  0  0  0  0  0  0
   -6.6528   -0.2934    0.0063 C   0  0  0  0  0  0  0  0  0  0  0  0
   -5.8705   -0.3252   -1.1025 N   0  0  0  0  0  0  0  0  0  0  0  0
   -6.4432   -0.4310   -2.2831 C   0  0  0  0  0  0  0  0  0  0  0  0
   -7.8471   -0.5143   -2.4575 C   0  0  0  0  0  0  0  0  0  0  0  0
   -8.6575   -0.4847   -1.3427 C   0  0  0  0  0  0  0  0  0  0  0  0
   -2.4050    0.0334    1.7826 N   0  0  0  0  0  0  0  0  0  0  0  0
   -1.2209    0.0642    2.5062 C   0  0  0  0  0  0  0  0  0  0  0  0
   -1.1677    0.1327    3.9103 C   0  0  0  0  0  0  0  0  0  0  0  0
    0.0640    0.1428    4.5614 C   0  0  0  0  0  0  0  0  0  0  0  0
    1.2664    0.0799    3.8458 C   0  0  0  0  0  0  0  0  0  0  0  0
    1.2262    0.0000    2.4576 C   0  0  0  0  0  0  0  0  0  0  0  0
    0.0000    0.0000    1.7717 C   0  0  0  0  0  0  0  0  0  0  0  0
    0.0000    0.0000    0.0000 S   0  0  0  0  0  0  0  0  0  0  0  0
   -4.2890   -0.1485    0.2421 H   0  0  0  0  0  0  0  0  0  0  0  0
   -6.2586   -0.0620    3.4022 H   0  0  0  0  0  0  0  0  0  0  0  0
   -8.7441   -0.1980    3.2895 H   0  0  0  0  0  0  0  0  0  0  0  0
   -9.9186   -0.3956    1.1075 H   0  0  0  0  0  0  0  0  0  0  0  0
   -5.7810   -0.4532   -3.1564 H   0  0  0  0  0  0  0  0  0  0  0  0
   -8.2657   -0.6001   -3.4621 H   0  0  0  0  0  0  0  0  0  0  0  0
   -9.7450   -0.5471   -1.4357 H   0  0  0  0  0  0  0  0  0  0  0  0
   -2.2562    0.0731    0.7753 H   0  0  0  0  0  0  0  0  0  0  0  0
   -2.1014    0.1747    4.4651 H   0  0  0  0  0  0  0  0  0  0  0  0
    0.0825    0.1992    5.6526 H   0  0  0  0  0  0  0  0  0  0  0  0
    2.2251    0.0877    4.3681 H   0  0  0  0  0  0  0  0  0  0  0  0
    2.1459   -0.0619    1.8731 H   0  0  0  0  0  0  0  0  0  0  0  0
   -0.6703   -2.1552   -0.5377 Au  0  0  0  0  0  0  0  0  0  0  0  0
  2  1  2  0  0  0  0
  3  4  1  0  0  0  0
  3  2  1  0  0  0  0
  4  5  2  0  0  0  0
  5 23  1  0  0  0  0
  6  5  1  0  0  0  0
  6 24  1  0  0  0  0
  7  6  2  0  0  0  0
  8 13  1  1  0  0  0
  8  9  1  0  0  0  0
  8  7  1  0  0  0  0
  9  4  1  0  0  0  0
 10  9  2  0  0  0  0
 11 10  2  0  0  0  0
 12 11  1  0  0  0  0
 12 13  2  0  0  0  0
 14  2  1  0  0  0  0
 14 15  1  0  0  0  0
 15 16  2  0  0  0  0
 16 30  1  0  0  0  0
 16 17  1  0  0  0  0
 17 31  1  0  0  0  0
 18 32  1  0  0  0  0
 18 17  2  0  0  0  0
 19 18  1  0  0  0  0
 20 19  2  0  0  0  0
 20 15  1  0  0  0  0
 21 20  1  0  0  0  0
 22  3  1  0  0  0  0
 25  7  1  0  0  0  0
 26 11  1  0  0  0  0
 27 12  1  0  0  0  0
 28 13  1  0  0  0  0
 29 14  1  0  0  0  0
 33 19  1  0  0  0  0
 34 21  1  0  0  0  0
M  RAD  1   8   2
M  END
