191201244.xyz
 OpenBabel07262113443D
Brc1ccc(c(c1)S)OC(F)(F)F
 17 17  0  0  0  0  0  0  0  0999 V2000
    3.0003   -0.1470    4.6825 Br  0  0  0  0  0  0  0  0  0  0  0  0
    1.3029   -0.1286    3.8207 C   0  0  0  0  0  0  0  0  0  0  0  0
    0.1405   -0.2236    4.5903 C   0  0  0  0  0  0  0  0  0  0  0  0
   -1.0982   -0.1940    3.9477 C   0  0  0  0  0  0  0  0  0  0  0  0
   -1.1648   -0.1003    2.5600 C   0  0  0  0  0  0  0  0  0  0  0  0
    0.0000    0.0000    1.7752 C   0  0  0  0  0  0  0  0  0  0  0  0
    1.2429    0.0000    2.4328 C   0  0  0  0  0  0  0  0  0  0  0  0
    0.0000    0.0000    0.0000 S   0  0  0  0  0  0  0  0  0  0  0  0
   -2.4039   -0.0072    1.9386 O   0  0  0  0  0  0  0  0  0  0  0  0
   -3.1477   -1.1282    1.7786 C   0  0  0  0  0  0  0  0  0  0  0  0
   -3.6730   -1.5470    2.9437 F   0  0  0  0  0  0  0  0  0  0  0  0
   -2.4440   -2.1428    1.2756 F   0  0  0  0  0  0  0  0  0  0  0  0
   -4.1440   -0.8340    0.9537 F   0  0  0  0  0  0  0  0  0  0  0  0
    0.2001   -0.3082    5.6756 H   0  0  0  0  0  0  0  0  0  0  0  0
   -2.0248   -0.2495    4.5199 H   0  0  0  0  0  0  0  0  0  0  0  0
    2.1554    0.0991    1.8447 H   0  0  0  0  0  0  0  0  0  0  0  0
   -1.4937    1.6679   -0.5505 Au  0  0  0  0  0  0  0  0  0  0  0  0
  2  3  2  0  0  0  0
  2  1  1  0  0  0  0
  3 14  1  0  0  0  0
  4 15  1  0  0  0  0
  4  3  1  0  0  0  0
  5  4  2  0  0  0  0
  6  7  2  0  0  0  0
  6  5  1  0  0  0  0
  7  2  1  0  0  0  0
  8  6  1  0  0  0  0
  9  5  1  0  0  0  0
 10  9  1  0  0  0  0
 10 11  1  0  0  0  0
 12 10  1  0  0  0  0
 13 10  1  0  0  0  0
 16  7  1  0  0  0  0
 17  8  1  0  0  0  0
M  END
