191208759.xyz
 OpenBabel07262113443D
NC(=O)c1cccc(c1OC(F)(F)F)S
 21 21  0  0  0  0  0  0  0  0999 V2000
   -3.4293   -0.6009    4.4403 N   0  0  0  0  0  0  0  0  0  0  0  0
   -2.3136    0.0254    4.9000 C   0  0  0  0  0  0  0  0  0  0  0  0
   -2.2202    0.4571    6.0355 O   0  0  0  0  0  0  0  0  0  0  0  0
   -1.1220    0.0771    3.9609 C   0  0  0  0  0  0  0  0  0  0  0  0
    0.1363    0.1221    4.5807 C   0  0  0  0  0  0  0  0  0  0  0  0
    1.3067    0.0912    3.8270 C   0  0  0  0  0  0  0  0  0  0  0  0
    1.2401   -0.0000    2.4371 C   0  0  0  0  0  0  0  0  0  0  0  0
   -0.0000    0.0000    1.7774 C   0  0  0  0  0  0  0  0  0  0  0  0
   -1.1705    0.0708    2.5601 C   0  0  0  0  0  0  0  0  0  0  0  0
   -2.4066    0.0473    1.9087 O   0  0  0  0  0  0  0  0  0  0  0  0
   -3.0142    1.2329    1.6134 C   0  0  0  0  0  0  0  0  0  0  0  0
   -2.2261    2.0647    0.9408 F   0  0  0  0  0  0  0  0  0  0  0  0
   -4.0836    0.9473    0.8815 F   0  0  0  0  0  0  0  0  0  0  0  0
   -3.4133    1.8729    2.7215 F   0  0  0  0  0  0  0  0  0  0  0  0
    0.0000    0.0000    0.0000 S   0  0  0  0  0  0  0  0  0  0  0  0
   -4.2400   -0.6056    5.0478 H   0  0  0  0  0  0  0  0  0  0  0  0
   -3.5312   -0.8630    3.4694 H   0  0  0  0  0  0  0  0  0  0  0  0
    0.1553    0.1694    5.6703 H   0  0  0  0  0  0  0  0  0  0  0  0
    2.2789    0.1114    4.3241 H   0  0  0  0  0  0  0  0  0  0  0  0
    2.1484   -0.0719    1.8363 H   0  0  0  0  0  0  0  0  0  0  0  0
   -1.2833   -1.8384   -0.5342 Au  0  0  0  0  0  0  0  0  0  0  0  0
  1  2  1  0  0  0  0
  1 16  1  0  0  0  0
  2  3  2  0  0  0  0
  4  5  1  0  0  0  0
  4  2  1  0  0  0  0
  5 18  1  0  0  0  0
  6 19  1  0  0  0  0
  6  5  2  0  0  0  0
  7  6  1  0  0  0  0
  8  7  2  0  0  0  0
  8  9  1  0  0  0  0
  9  4  2  0  0  0  0
 10  9  1  0  0  0  0
 11 10  1  0  0  0  0
 11 14  1  0  0  0  0
 12 11  1  0  0  0  0
 13 11  1  0  0  0  0
 15  8  1  0  0  0  0
 17  1  1  0  0  0  0
 20  7  1  0  0  0  0
 21 15  1  0  0  0  0
M  END
