193071030.xyz
 OpenBabel07262113443D
SCC1O[C@@H]2OC(OC2[C@H]2[C@H]1OC(O2)(C)C)(C)C
 38 40  0  0  1  0  0  0  0  0999 V2000
    0.0000    0.0000    0.0000 S   0  0  0  0  0  0  0  0  0  0  0  0
   -0.0000   -0.0000    1.8297 C   0  0  0  0  0  0  0  0  0  0  0  0
    1.3668   -0.0000    2.4867 C   0  0  2  0  0  0  0  0  0  0  0  0
    2.0549   -1.1885    2.1153 O   0  0  0  0  0  0  0  0  0  0  0  0
    3.3617   -1.4264    2.6223 C   0  0  2  0  0  0  0  0  0  0  0  0
    3.6256   -2.7795    2.5121 O   0  0  0  0  0  0  0  0  0  0  0  0
    3.1839   -3.4411    3.7128 C   0  0  0  0  0  0  0  0  0  0  0  0
    2.9489   -2.3988    4.6642 O   0  0  0  0  0  0  0  0  0  0  0  0
    3.4938   -1.2045    4.1539 C   0  0  2  0  0  0  0  0  0  0  0  0
    2.7220    0.0285    4.5360 C   0  0  1  0  0  0  0  0  0  0  0  0
    1.3092   -0.0245    4.0052 C   0  0  1  0  0  0  0  0  0  0  0  0
    0.7268    1.0799    4.6591 O   0  0  0  0  0  0  0  0  0  0  0  0
    1.3447    1.1470    5.9612 C   0  0  0  0  0  0  0  0  0  0  0  0
    2.5257    0.3227    5.8962 O   0  0  0  0  0  0  0  0  0  0  0  0
    0.4218    0.5582    7.0161 C   0  0  0  0  0  0  0  0  0  0  0  0
    1.7256    2.5951    6.2219 C   0  0  0  0  0  0  0  0  0  0  0  0
    1.8760   -4.1751    3.4643 C   0  0  0  0  0  0  0  0  0  0  0  0
    4.3111   -4.3466    4.1846 C   0  0  0  0  0  0  0  0  0  0  0  0
    0.9518    2.0240   -0.5075 Au  0  0  0  0  0  0  0  0  0  0  0  0
   -0.5236   -0.9363    2.0881 H   0  0  0  0  0  0  0  0  0  0  0  0
   -0.5902    0.8371    2.2270 H   0  0  0  0  0  0  0  0  0  0  0  0
    1.9202    0.9015    2.1530 H   0  0  0  0  0  0  0  0  0  0  0  0
    4.1031   -0.8622    2.0295 H   0  0  0  0  0  0  0  0  0  0  0  0
    4.5648   -1.1063    4.4164 H   0  0  0  0  0  0  0  0  0  0  0  0
    3.2439    0.8744    4.0370 H   0  0  0  0  0  0  0  0  0  0  0  0
    0.8338   -0.9727    4.3163 H   0  0  0  0  0  0  0  0  0  0  0  0
    0.1487   -0.4703    6.7407 H   0  0  0  0  0  0  0  0  0  0  0  0
   -0.4924    1.1629    7.1042 H   0  0  0  0  0  0  0  0  0  0  0  0
    0.9311    0.5318    7.9905 H   0  0  0  0  0  0  0  0  0  0  0  0
    2.4356    2.9387    5.4560 H   0  0  0  0  0  0  0  0  0  0  0  0
    0.8318    3.2349    6.1811 H   0  0  0  0  0  0  0  0  0  0  0  0
    2.1928    2.6939    7.2123 H   0  0  0  0  0  0  0  0  0  0  0  0
    1.4992   -4.6019    4.4055 H   0  0  0  0  0  0  0  0  0  0  0  0
    1.1379   -3.4722    3.0576 H   0  0  0  0  0  0  0  0  0  0  0  0
    2.0295   -4.9871    2.7391 H   0  0  0  0  0  0  0  0  0  0  0  0
    5.2125   -3.7506    4.3879 H   0  0  0  0  0  0  0  0  0  0  0  0
    4.0150   -4.8702    5.1050 H   0  0  0  0  0  0  0  0  0  0  0  0
    4.5499   -5.0899    3.4101 H   0  0  0  0  0  0  0  0  0  0  0  0
  1  2  1  0  0  0  0
  2 20  1  0  0  0  0
  2 21  1  0  0  0  0
  2  3  1  0  0  0  0
  3 11  1  1  0  0  0
  4  3  1  0  0  0  0
  4  5  1  0  0  0  0
  5  9  1  1  0  0  0
  6  5  1  0  0  0  0
  6  7  1  0  0  0  0
  7 18  1  0  0  0  0
  7  8  1  0  0  0  0
  9 24  1  0  0  0  0
  9 10  1  1  0  0  0
  9  8  1  0  0  0  0
 10 11  1  6  0  0  0
 10 14  1  0  0  0  0
 11 26  1  1  0  0  0
 11 12  1  0  0  0  0
 12 13  1  0  0  0  0
 13 16  1  0  0  0  0
 13 15  1  0  0  0  0
 14 13  1  0  0  0  0
 15 28  1  0  0  0  0
 15 29  1  0  0  0  0
 16 32  1  0  0  0  0
 17  7  1  0  0  0  0
 17 33  1  0  0  0  0
 18 36  1  0  0  0  0
 18 37  1  0  0  0  0
 19  1  1  0  0  0  0
 22  3  1  0  0  0  0
 23  5  1  0  0  0  0
 25 10  1  0  0  0  0
 27 15  1  0  0  0  0
 30 16  1  0  0  0  0
 31 16  1  0  0  0  0
 34 17  1  0  0  0  0
 35 17  1  0  0  0  0
 38 18  1  0  0  0  0
M  END
