206906948.xyz
 OpenBabel07262113443D
SC1=NC(=O)/C(=C\c2cccc(c2Cl)Cl)/S1
 21 22  0  0  0  0  0  0  0  0999 V2000
    0.0000    0.0000    0.0000 S   0  0  0  0  0  0  0  0  0  0  0  0
   -0.0000   -0.0000    1.7377 C   0  0  0  0  0  0  0  0  0  0  0  0
   -1.0417   -0.0000    2.5022 N   0  0  0  0  0  0  0  0  0  0  0  0
   -0.7342   -0.0005    3.8669 C   0  0  0  0  0  0  0  0  0  0  0  0
   -1.5900   -0.0018    4.7285 O   0  0  0  0  0  0  0  0  0  0  0  0
    0.7609    0.0006    4.1111 C   0  0  0  0  0  0  0  0  0  0  0  0
    1.5270    0.0031    5.2359 C   0  0  0  0  0  0  0  0  0  0  0  0
    1.2484    0.0043    6.6675 C   0  0  0  0  0  0  0  0  0  0  0  0
   -0.0503   -0.0024    7.2198 C   0  0  0  0  0  0  0  0  0  0  0  0
   -0.2504   -0.0018    8.5966 C   0  0  0  0  0  0  0  0  0  0  0  0
    0.8335    0.0057    9.4718 C   0  0  0  0  0  0  0  0  0  0  0  0
    2.1339    0.0128    8.9594 C   0  0  0  0  0  0  0  0  0  0  0  0
    2.3502    0.0121    7.5738 C   0  0  0  0  0  0  0  0  0  0  0  0
    3.9973    0.0213    6.9975 Cl  0  0  0  0  0  0  0  0  0  0  0  0
    3.4676    0.0224   10.0776 Cl  0  0  0  0  0  0  0  0  0  0  0  0
    1.5872    0.0000    2.5309 S   0  0  0  0  0  0  0  0  0  0  0  0
   -2.3015    0.0029   -0.3008 Au  0  0  0  0  0  0  0  0  0  0  0  0
    2.5999    0.0049    5.0315 H   0  0  0  0  0  0  0  0  0  0  0  0
   -0.8966   -0.0078    6.5362 H   0  0  0  0  0  0  0  0  0  0  0  0
   -1.2673   -0.0073    8.9940 H   0  0  0  0  0  0  0  0  0  0  0  0
    0.6935    0.0064   10.5535 H   0  0  0  0  0  0  0  0  0  0  0  0
  1  2  1  0  0  0  0
  2  3  2  0  0  0  0
  2 16  1  0  0  0  0
  3  4  2  0  0  0  0
  4  6  1  0  0  0  0
  4  5  2  0  0  0  0
  6  7  2  0  0  0  0
  7  8  1  0  0  0  0
  8  9  2  0  0  0  0
  8 13  1  0  0  0  0
  9 10  1  0  0  0  0
 10 20  1  0  0  0  0
 10 11  2  0  0  0  0
 11 21  1  0  0  0  0
 12 11  1  0  0  0  0
 12 15  1  0  0  0  0
 13 12  2  0  0  0  0
 14 13  1  0  0  0  0
 16  6  1  0  0  0  0
 17  1  1  0  0  0  0
 18  7  1  0  0  0  0
 19  9  1  0  0  0  0
M  END
