206964880.xyz
 OpenBabel07262113443D
Cc1ccc(s1)/C=N/n1c(S)nnc1c1ccccc1Cl
 32 34  0  0  0  0  0  0  0  0999 V2000
    7.7301   -0.7001   -1.1173 C   0  0  0  0  0  0  0  0  0  0  0  0
    6.5891   -0.4489   -0.1822 C   0  0  0  0  0  0  0  0  0  0  0  0
    6.6276    0.0943    1.0869 C   0  0  0  0  0  0  0  0  0  0  0  0
    5.3537    0.1964    1.7017 C   0  0  0  0  0  0  0  0  0  0  0  0
    4.3322   -0.2737    0.8972 C   0  0  0  0  0  0  0  0  0  0  0  0
    4.9579   -0.8439   -0.6306 S   0  0  0  0  0  0  0  0  0  0  0  0
    2.9173   -0.3506    1.1842 C   0  0  0  0  0  0  0  0  0  0  0  0
    2.4618    0.0808    2.3046 N   0  0  0  0  0  0  0  0  0  0  0  0
    1.1281    0.0000    2.5637 N   0  0  0  0  0  0  0  0  0  0  0  0
    0.0000    0.0000    1.7539 C   0  0  0  0  0  0  0  0  0  0  0  0
    0.0000    0.0000    0.0000 S   0  0  0  0  0  0  0  0  0  0  0  0
   -1.0712    0.0761    2.5222 N   0  0  0  0  0  0  0  0  0  0  0  0
   -0.6746    0.1252    3.8286 N   0  0  0  0  0  0  0  0  0  0  0  0
    0.6336    0.0758    3.8614 C   0  0  0  0  0  0  0  0  0  0  0  0
    1.4700    0.1484    5.0676 C   0  0  0  0  0  0  0  0  0  0  0  0
    1.2356    1.1930    5.9779 C   0  0  0  0  0  0  0  0  0  0  0  0
    1.9847    1.3150    7.1467 C   0  0  0  0  0  0  0  0  0  0  0  0
    2.9895    0.3851    7.4262 C   0  0  0  0  0  0  0  0  0  0  0  0
    3.2259   -0.6746    6.5495 C   0  0  0  0  0  0  0  0  0  0  0  0
    2.4633   -0.7969    5.3858 C   0  0  0  0  0  0  0  0  0  0  0  0
    2.7245   -2.1973    4.3734 Cl  0  0  0  0  0  0  0  0  0  0  0  0
    7.6174   -0.1397   -2.0600 H   0  0  0  0  0  0  0  0  0  0  0  0
    7.8178   -1.7676   -1.3782 H   0  0  0  0  0  0  0  0  0  0  0  0
    8.6735   -0.3871   -0.6474 H   0  0  0  0  0  0  0  0  0  0  0  0
    7.5596    0.4104    1.5584 H   0  0  0  0  0  0  0  0  0  0  0  0
    5.1653    0.5918    2.6996 H   0  0  0  0  0  0  0  0  0  0  0  0
    2.2696   -0.8092    0.4213 H   0  0  0  0  0  0  0  0  0  0  0  0
   -2.2819    0.4233   -0.1922 Au  0  0  0  0  0  0  0  0  0  0  0  0
    0.4492    1.9113    5.7407 H   0  0  0  0  0  0  0  0  0  0  0  0
    1.7873    2.1380    7.8367 H   0  0  0  0  0  0  0  0  0  0  0  0
    3.5877    0.4744    8.3360 H   0  0  0  0  0  0  0  0  0  0  0  0
    3.9879   -1.4245    6.7657 H   0  0  0  0  0  0  0  0  0  0  0  0
  1 24  1  0  0  0  0
  1  2  1  0  0  0  0
  2  3  2  0  0  0  0
  3 25  1  0  0  0  0
  3  4  1  0  0  0  0
  4 26  1  0  0  0  0
  5  7  1  0  0  0  0
  5  4  2  0  0  0  0
  6  2  1  0  0  0  0
  6  5  1  0  0  0  0
  7  8  2  0  0  0  0
  8  9  1  0  0  0  0
  9 14  1  0  0  0  0
 10 12  2  0  0  0  0
 10  9  1  0  0  0  0
 11 10  1  0  0  0  0
 12 13  1  0  0  0  0
 13 14  2  0  0  0  0
 14 15  1  0  0  0  0
 15 20  2  0  0  0  0
 15 16  1  0  0  0  0
 16 17  2  0  0  0  0
 17 18  1  0  0  0  0
 17 30  1  0  0  0  0
 18 31  1  0  0  0  0
 19 32  1  0  0  0  0
 19 18  2  0  0  0  0
 20 19  1  0  0  0  0
 21 20  1  0  0  0  0
 22  1  1  0  0  0  0
 23  1  1  0  0  0  0
 27  7  1  0  0  0  0
 28 11  1  0  0  0  0
 29 16  1  0  0  0  0
M  END
