207118384.xyz
 OpenBabel07262113443D
CCN/C(=N/N=C\c1ccccc1F)/S
 27 28  0  0  0  0  0  0  0  0999 V2000
    2.9402    1.5142    1.3607 C   0  0  0  0  0  0  0  0  0  0  0  0
    2.5152    0.0862    1.7051 C   0  0  0  0  0  0  0  0  0  0  0  0
    1.2201   -0.0000    2.3561 N   0  0  0  0  0  0  0  0  0  0  0  0
    0.0000    0.0000    1.7625 C   0  0  0  0  0  0  0  0  0  0  0  0
   -1.0157   -0.0119    2.6218 N   0  0  0  0  0  0  0  0  0  0  0  0
   -2.2731    0.0042    2.1857 N   0  0  0  0  0  0  0  0  0  0  0  0
   -3.2749   -0.0653    3.0137 C   0  0  0  0  0  0  0  0  0  0  0  0
   -3.2953   -0.1904    4.4679 C   0  0  0  0  0  0  0  0  0  0  0  0
   -2.1651   -0.2948    5.3096 C   0  0  0  0  0  0  0  0  0  0  0  0
   -2.3035   -0.4162    6.6913 C   0  0  0  0  0  0  0  0  0  0  0  0
   -3.5725   -0.4367    7.2784 C   0  0  0  0  0  0  0  0  0  0  0  0
   -4.7116   -0.3362    6.4756 C   0  0  0  0  0  0  0  0  0  0  0  0
   -4.5573   -0.2167    5.1015 C   0  0  0  0  0  0  0  0  0  0  0  0
   -5.6661   -0.1222    4.3462 F   0  0  0  0  0  0  0  0  0  0  0  0
    0.0000    0.0000    0.0000 S   0  0  0  0  0  0  0  0  0  0  0  0
    2.2232    1.9685    0.6611 H   0  0  0  0  0  0  0  0  0  0  0  0
    2.9896    2.1417    2.2649 H   0  0  0  0  0  0  0  0  0  0  0  0
    3.9347    1.5151    0.8868 H   0  0  0  0  0  0  0  0  0  0  0  0
    3.2481   -0.3786    2.3840 H   0  0  0  0  0  0  0  0  0  0  0  0
    2.4887   -0.5317    0.7946 H   0  0  0  0  0  0  0  0  0  0  0  0
    1.1801    0.0665    3.3684 H   0  0  0  0  0  0  0  0  0  0  0  0
   -4.2533   -0.0223    2.5343 H   0  0  0  0  0  0  0  0  0  0  0  0
   -1.1869   -0.2772    4.8372 H   0  0  0  0  0  0  0  0  0  0  0  0
   -1.4119   -0.4960    7.3170 H   0  0  0  0  0  0  0  0  0  0  0  0
   -3.6803   -0.5313    8.3612 H   0  0  0  0  0  0  0  0  0  0  0  0
   -5.7192   -0.3487    6.8944 H   0  0  0  0  0  0  0  0  0  0  0  0
   -2.3895    0.0495   -0.1719 Au  0  0  0  0  0  0  0  0  0  0  0  0
  1  2  1  0  0  0  0
  1 17  1  0  0  0  0
  2  3  1  0  0  0  0
  2 19  1  0  0  0  0
  3 21  1  0  0  0  0
  4  3  1  0  0  0  0
  4  5  2  0  0  0  0
  6  5  1  0  0  0  0
  6  7  1  0  0  0  0
  7  8  1  0  0  0  0
  8 13  2  0  0  0  0
  8  9  1  0  0  0  0
  9 10  2  0  0  0  0
 10 11  1  0  0  0  0
 10 24  1  0  0  0  0
 11 25  1  0  0  0  0
 12 26  1  0  0  0  0
 12 11  2  0  0  0  0
 13 12  1  0  0  0  0
 14 13  1  0  0  0  0
 15  4  1  0  0  0  0
 16  1  1  0  0  0  0
 18  1  1  0  0  0  0
 20  2  1  0  0  0  0
 22  7  1  0  0  0  0
 23  9  1  0  0  0  0
 27 15  1  0  0  0  0
 27  6  1  0  0  0  0
M  RAD  1   7   2
M  END
