207330061.xyz
 OpenBabel07262113443D
COc1cc(ccc1O)/C=C\1/N=C(N(C1=O)c1ccccc1)S
 37 39  0  0  0  0  0  0  0  0999 V2000
   -2.3169    0.3006    8.4445 C   0  0  0  0  0  0  0  0  0  0  0  0
   -1.0878    0.2808    9.1400 O   0  0  0  0  0  0  0  0  0  0  0  0
    0.0514    0.2181    8.4151 C   0  0  0  0  0  0  0  0  0  0  0  0
    0.0997    0.1750    7.0271 C   0  0  0  0  0  0  0  0  0  0  0  0
    1.3355    0.1085    6.3358 C   0  0  0  0  0  0  0  0  0  0  0  0
    2.5230    0.0880    7.0955 C   0  0  0  0  0  0  0  0  0  0  0  0
    2.4796    0.1320    8.4871 C   0  0  0  0  0  0  0  0  0  0  0  0
    1.2589    0.1969    9.1634 C   0  0  0  0  0  0  0  0  0  0  0  0
    1.1571    0.2415   10.5094 O   0  0  0  0  0  0  0  0  0  0  0  0
    1.4678    0.0584    4.8965 C   0  0  0  0  0  0  0  0  0  0  0  0
    0.5765    0.0558    3.8582 C   0  0  0  0  0  0  0  0  0  0  0  0
    1.0378   -0.0000    2.5333 N   0  0  0  0  0  0  0  0  0  0  0  0
    0.0000    0.0000    1.7566 C   0  0  0  0  0  0  0  0  0  0  0  0
   -1.2134    0.0491    2.4531 N   0  0  0  0  0  0  0  0  0  0  0  0
   -0.9147    0.1046    3.8328 C   0  0  0  0  0  0  0  0  0  0  0  0
   -1.7595    0.1747    4.7070 O   0  0  0  0  0  0  0  0  0  0  0  0
   -2.5283    0.0349    1.9163 C   0  0  0  0  0  0  0  0  0  0  0  0
   -3.4549    1.0009    2.3275 C   0  0  0  0  0  0  0  0  0  0  0  0
   -4.7485    0.9818    1.8054 C   0  0  0  0  0  0  0  0  0  0  0  0
   -5.1198    0.0123    0.8687 C   0  0  0  0  0  0  0  0  0  0  0  0
   -4.1936   -0.9528    0.4656 C   0  0  0  0  0  0  0  0  0  0  0  0
   -2.9027   -0.9541    0.9973 C   0  0  0  0  0  0  0  0  0  0  0  0
    0.0000    0.0000    0.0000 S   0  0  0  0  0  0  0  0  0  0  0  0
   -2.4544   -0.6075    7.8321 H   0  0  0  0  0  0  0  0  0  0  0  0
   -3.1047    0.3493    9.2073 H   0  0  0  0  0  0  0  0  0  0  0  0
   -2.3956    1.1781    7.7794 H   0  0  0  0  0  0  0  0  0  0  0  0
   -0.8181    0.1918    6.4449 H   0  0  0  0  0  0  0  0  0  0  0  0
    3.4885    0.0366    6.5878 H   0  0  0  0  0  0  0  0  0  0  0  0
    3.4070    0.1156    9.0679 H   0  0  0  0  0  0  0  0  0  0  0  0
    2.0433    0.2207   10.8943 H   0  0  0  0  0  0  0  0  0  0  0  0
    2.5031    0.0092    4.5436 H   0  0  0  0  0  0  0  0  0  0  0  0
   -3.1579    1.7538    3.0569 H   0  0  0  0  0  0  0  0  0  0  0  0
   -5.4699    1.7361    2.1281 H   0  0  0  0  0  0  0  0  0  0  0  0
   -6.1318    0.0066    0.4574 H   0  0  0  0  0  0  0  0  0  0  0  0
   -4.4784   -1.7200   -0.2580 H   0  0  0  0  0  0  0  0  0  0  0  0
   -2.1842   -1.7211    0.7056 H   0  0  0  0  0  0  0  0  0  0  0  0
    2.2995    0.0982   -0.2655 Au  0  0  0  0  0  0  0  0  0  0  0  0
  1  2  1  0  0  0  0
  1 25  1  0  0  0  0
  3  2  1  0  0  0  0
  3  8  2  0  0  0  0
  4  3  1  0  0  0  0
  5  4  2  0  0  0  0
  5  6  1  0  0  0  0
  6  7  2  0  0  0  0
  7 29  1  0  0  0  0
  7  8  1  0  0  0  0
  8  9  1  0  0  0  0
  9 30  1  0  0  0  0
 10  5  1  0  0  0  0
 11 10  1  0  0  0  0
 12 11  2  0  0  0  0
 13 14  1  0  0  0  0
 13 12  2  0  0  0  0
 14 15  1  0  0  0  0
 15 11  1  0  0  0  0
 15 16  2  0  0  0  0
 17 18  1  0  0  0  0
 17 14  1  0  0  0  0
 18 32  1  0  0  0  0
 19 33  1  0  0  0  0
 19 18  2  0  0  0  0
 20 19  1  0  0  0  0
 21 20  2  0  0  0  0
 21 22  1  0  0  0  0
 22 17  2  0  0  0  0
 23 13  1  0  0  0  0
 24  1  1  0  0  0  0
 26  1  1  0  0  0  0
 27  4  1  0  0  0  0
 28  6  1  0  0  0  0
 31 10  1  0  0  0  0
 34 20  1  0  0  0  0
 35 21  1  0  0  0  0
 36 22  1  0  0  0  0
 37 23  1  0  0  0  0
M  RAD  1  10   2
M  END
