207580564.xyz
 OpenBabel07262113443D
COc1cc(Cl)ccc1S
 17 17  0  0  0  0  0  0  0  0999 V2000
   -3.5834   -0.1642    2.5244 C   0  0  0  0  0  0  0  0  0  0  0  0
   -2.3563   -0.0491    1.8366 O   0  0  0  0  0  0  0  0  0  0  0  0
   -1.1994   -0.1013    2.5241 C   0  0  0  0  0  0  0  0  0  0  0  0
   -1.1373   -0.2169    3.9186 C   0  0  0  0  0  0  0  0  0  0  0  0
    0.1080   -0.2392    4.5543 C   0  0  0  0  0  0  0  0  0  0  0  0
    0.1592   -0.3940    6.2931 Cl  0  0  0  0  0  0  0  0  0  0  0  0
    1.2981   -0.1327    3.8351 C   0  0  0  0  0  0  0  0  0  0  0  0
    1.2262    0.0000    2.4484 C   0  0  0  0  0  0  0  0  0  0  0  0
   -0.0000    0.0000    1.7681 C   0  0  0  0  0  0  0  0  0  0  0  0
    0.0000    0.0000    0.0000 S   0  0  0  0  0  0  0  0  0  0  0  0
   -3.6596   -1.1280    3.0571 H   0  0  0  0  0  0  0  0  0  0  0  0
   -3.7233    0.6580    3.2478 H   0  0  0  0  0  0  0  0  0  0  0  0
   -4.3704   -0.1104    1.7616 H   0  0  0  0  0  0  0  0  0  0  0  0
   -2.0384   -0.2952    4.5229 H   0  0  0  0  0  0  0  0  0  0  0  0
    2.2573   -0.1448    4.3528 H   0  0  0  0  0  0  0  0  0  0  0  0
    2.1413    0.0996    1.8616 H   0  0  0  0  0  0  0  0  0  0  0  0
   -1.1575    1.9230   -0.5361 Au  0  0  0  0  0  0  0  0  0  0  0  0
  1 11  1  0  0  0  0
  1 12  1  0  0  0  0
  2  3  1  0  0  0  0
  2  1  1  0  0  0  0
  3  4  2  0  0  0  0
  4 14  1  0  0  0  0
  4  5  1  0  0  0  0
  5  6  1  0  0  0  0
  7 15  1  0  0  0  0
  7  5  2  0  0  0  0
  8  7  1  0  0  0  0
  9  8  2  0  0  0  0
  9  3  1  0  0  0  0
 10  9  1  0  0  0  0
 13  1  1  0  0  0  0
 16  8  1  0  0  0  0
 17 10  1  0  0  0  0
M  END
