207580509.xyz
 OpenBabel07262113443D
Cc1ccc(c(c1)C(C)(C)C)S
 28 28  0  0  0  0  0  0  0  0999 V2000
   -0.4429    0.1807    6.0965 C   0  0  0  0  0  0  0  0  0  0  0  0
   -0.3003    0.1197    4.5982 C   0  0  0  0  0  0  0  0  0  0  0  0
   -1.4303    0.1259    3.7699 C   0  0  0  0  0  0  0  0  0  0  0  0
   -1.2724    0.0760    2.3930 C   0  0  0  0  0  0  0  0  0  0  0  0
   -0.0000   -0.0000    1.7907 C   0  0  0  0  0  0  0  0  0  0  0  0
    1.1686   -0.0000    2.6033 C   0  0  0  0  0  0  0  0  0  0  0  0
    0.9605    0.0646    3.9930 C   0  0  0  0  0  0  0  0  0  0  0  0
    2.6141   -0.0502    2.0570 C   0  0  0  0  0  0  0  0  0  0  0  0
    2.8463   -1.3580    1.2709 C   0  0  0  0  0  0  0  0  0  0  0  0
    3.6604   -0.0163    3.1878 C   0  0  0  0  0  0  0  0  0  0  0  0
    2.8854    1.1796    1.1623 C   0  0  0  0  0  0  0  0  0  0  0  0
    0.0000    0.0000    0.0000 S   0  0  0  0  0  0  0  0  0  0  0  0
   -1.0623   -0.6510    6.4711 H   0  0  0  0  0  0  0  0  0  0  0  0
   -0.9389    1.1147    6.4099 H   0  0  0  0  0  0  0  0  0  0  0  0
    0.5332    0.1312    6.6002 H   0  0  0  0  0  0  0  0  0  0  0  0
   -2.4326    0.1759    4.2038 H   0  0  0  0  0  0  0  0  0  0  0  0
   -2.1473    0.0889    1.7408 H   0  0  0  0  0  0  0  0  0  0  0  0
    1.8237    0.0692    4.6553 H   0  0  0  0  0  0  0  0  0  0  0  0
    3.8944   -1.4100    0.9346 H   0  0  0  0  0  0  0  0  0  0  0  0
    2.6507   -2.2335    1.9104 H   0  0  0  0  0  0  0  0  0  0  0  0
    2.2028   -1.4257    0.3869 H   0  0  0  0  0  0  0  0  0  0  0  0
    4.6664   -0.0491    2.7433 H   0  0  0  0  0  0  0  0  0  0  0  0
    3.5959    0.9038    3.7884 H   0  0  0  0  0  0  0  0  0  0  0  0
    3.5713   -0.8804    3.8636 H   0  0  0  0  0  0  0  0  0  0  0  0
    3.9301    1.1645    0.8116 H   0  0  0  0  0  0  0  0  0  0  0  0
    2.7292    2.1119    1.7277 H   0  0  0  0  0  0  0  0  0  0  0  0
    2.2334    1.1960    0.2799 H   0  0  0  0  0  0  0  0  0  0  0  0
   -0.6194   -2.1582   -0.5345 Au  0  0  0  0  0  0  0  0  0  0  0  0
  1 14  1  0  0  0  0
  1 13  1  0  0  0  0
  1 15  1  0  0  0  0
  2  1  1  0  0  0  0
  3 16  1  0  0  0  0
  3  2  2  0  0  0  0
  4  3  1  0  0  0  0
  5  4  2  0  0  0  0
  5  6  1  0  0  0  0
  6  7  2  0  0  0  0
  7  2  1  0  0  0  0
  7 18  1  0  0  0  0
  8  6  1  0  0  0  0
  8 10  1  0  0  0  0
  9 20  1  0  0  0  0
  9  8  1  0  0  0  0
 10 23  1  0  0  0  0
 10 24  1  0  0  0  0
 11 26  1  0  0  0  0
 11  8  1  0  0  0  0
 12  5  1  0  0  0  0
 17  4  1  0  0  0  0
 19  9  1  0  0  0  0
 21  9  1  0  0  0  0
 22 10  1  0  0  0  0
 25 11  1  0  0  0  0
 27 11  1  0  0  0  0
 28 12  1  0  0  0  0
M  END
