207813052.xyz
 OpenBabel07262113443D
Clc1cc([N+](=O)[O-])c(c(c1S)N)Cl
 17 17  0  0  0  0  0  0  0  0999 V2000
   -2.7350    0.0488    1.7061 Cl  0  0  0  0  0  0  0  0  0  0  0  0
   -1.1978   -0.0334    2.5084 C   0  0  0  0  0  0  0  0  0  0  0  0
   -1.1872   -0.1097    3.8957 C   0  0  0  0  0  0  0  0  0  0  0  0
    0.0404   -0.1685    4.5579 C   0  0  0  0  0  0  0  0  0  0  0  0
   -0.0212   -0.3035    6.0279 N   0  0  0  0  0  0  0  0  0  0  0  0
   -0.9121    0.3080    6.5942 O   0  0  0  0  0  0  0  0  0  0  0  0
    0.7924   -1.0308    6.5647 O   0  0  0  0  0  0  0  0  0  0  0  0
    1.2542   -0.1065    3.8739 C   0  0  0  0  0  0  0  0  0  0  0  0
    1.2513    0.0000    2.4571 C   0  0  0  0  0  0  0  0  0  0  0  0
   -0.0000    0.0000    1.7639 C   0  0  0  0  0  0  0  0  0  0  0  0
    0.0000    0.0000    0.0000 S   0  0  0  0  0  0  0  0  0  0  0  0
    2.4113    0.1471    1.7710 N   0  0  0  0  0  0  0  0  0  0  0  0
    2.7975   -0.0829    4.6824 Cl  0  0  0  0  0  0  0  0  0  0  0  0
   -2.1102   -0.1249    4.4708 H   0  0  0  0  0  0  0  0  0  0  0  0
    0.2724    2.2536   -0.4612 Au  0  0  0  0  0  0  0  0  0  0  0  0
    3.2862   -0.0061    2.2555 H   0  0  0  0  0  0  0  0  0  0  0  0
    2.3677    0.0409    0.7627 H   0  0  0  0  0  0  0  0  0  0  0  0
  1  2  1  0  0  0  0
  2  3  2  0  0  0  0
  3 14  1  0  0  0  0
  3  4  1  0  0  0  0
  4  5  1  0  0  0  0
  5  7  2  0  0  0  0
  5  6  2  0  0  0  0
  8  4  2  0  0  0  0
  8 13  1  0  0  0  0
  9  8  1  0  0  0  0
 10  9  2  0  0  0  0
 10  2  1  0  0  0  0
 11 10  1  0  0  0  0
 12 16  1  0  0  0  0
 12  9  1  0  0  0  0
 15 11  1  0  0  0  0
 17 12  1  0  0  0  0
M  END
