2307487.xyz
 OpenBabel07262113443D
Cc1ccc(cc1)NC(=O)C1=C(C)N=C(NC1c1cccc(c1Cl)Cl)S
 43 45  0  0  1  0  0  0  0  0999 V2000
   -0.4543    2.4495   12.2161 C   0  0  0  0  0  0  0  0  0  0  0  0
   -0.4124    2.0749   10.7563 C   0  0  0  0  0  0  0  0  0  0  0  0
   -1.2151    2.7235    9.8080 C   0  0  0  0  0  0  0  0  0  0  0  0
   -1.1568    2.3837    8.4578 C   0  0  0  0  0  0  0  0  0  0  0  0
   -0.2864    1.3771    8.0078 C   0  0  0  0  0  0  0  0  0  0  0  0
    0.5266    0.7161    8.9458 C   0  0  0  0  0  0  0  0  0  0  0  0
    0.4503    1.0703   10.2920 C   0  0  0  0  0  0  0  0  0  0  0  0
   -0.2902    1.0796    6.6347 N   0  0  0  0  0  0  0  0  0  0  0  0
    0.4740    0.1643    5.9428 C   0  0  0  0  0  0  0  0  0  0  0  0
    1.3787   -0.4824    6.4602 O   0  0  0  0  0  0  0  0  0  0  0  0
    0.1907    0.0191    4.4942 C   0  0  2  0  0  0  0  0  0  0  0  0
   -1.0024    0.1669    3.8355 C   0  0  0  0  0  0  0  0  0  0  0  0
   -2.3298    0.4738    4.4827 C   0  0  0  0  0  0  0  0  0  0  0  0
   -1.1071    0.0216    2.4615 N   0  0  0  0  0  0  0  0  0  0  0  0
   -0.0000   -0.0000    1.7675 C   0  0  0  0  0  0  0  0  0  0  0  0
    1.2287    0.0000    2.3336 N   0  0  0  0  0  0  0  0  0  0  0  0
    1.3761   -0.4959    3.7054 C   0  0  2  0  0  0  0  0  0  0  0  0
    1.5432   -2.0200    3.7170 C   0  0  0  0  0  0  0  0  0  0  0  0
    0.5363   -2.8662    4.1870 C   0  0  0  0  0  0  0  0  0  0  0  0
    0.6906   -4.2526    4.1638 C   0  0  0  0  0  0  0  0  0  0  0  0
    1.8619   -4.8211    3.6677 C   0  0  0  0  0  0  0  0  0  0  0  0
    2.8833   -3.9939    3.1922 C   0  0  0  0  0  0  0  0  0  0  0  0
    2.7204   -2.6007    3.2155 C   0  0  0  0  0  0  0  0  0  0  0  0
    4.0064   -1.5747    2.6077 Cl  0  0  0  0  0  0  0  0  0  0  0  0
    4.3428   -4.7171    2.5798 Cl  0  0  0  0  0  0  0  0  0  0  0  0
    0.0000    0.0000    0.0000 S   0  0  0  0  0  0  0  0  0  0  0  0
   -1.3077    3.1068   12.4398 H   0  0  0  0  0  0  0  0  0  0  0  0
   -0.5353    1.5579   12.8586 H   0  0  0  0  0  0  0  0  0  0  0  0
    0.4635    2.9822   12.5197 H   0  0  0  0  0  0  0  0  0  0  0  0
   -1.9026    3.5105   10.1298 H   0  0  0  0  0  0  0  0  0  0  0  0
   -1.7976    2.9043    7.7397 H   0  0  0  0  0  0  0  0  0  0  0  0
    1.2074   -0.0586    8.6034 H   0  0  0  0  0  0  0  0  0  0  0  0
    1.0898    0.5438   11.0066 H   0  0  0  0  0  0  0  0  0  0  0  0
   -0.8969    1.6626    6.0746 H   0  0  0  0  0  0  0  0  0  0  0  0
   -2.3720    0.1912    5.5414 H   0  0  0  0  0  0  0  0  0  0  0  0
   -2.5754    1.5470    4.3899 H   0  0  0  0  0  0  0  0  0  0  0  0
   -3.1098   -0.0699    3.9313 H   0  0  0  0  0  0  0  0  0  0  0  0
    2.0504   -0.0417    1.7399 H   0  0  0  0  0  0  0  0  0  0  0  0
    2.2993   -0.0684    4.1171 H   0  0  0  0  0  0  0  0  0  0  0  0
   -0.3745   -2.4206    4.5872 H   0  0  0  0  0  0  0  0  0  0  0  0
   -0.1067   -4.8982    4.5377 H   0  0  0  0  0  0  0  0  0  0  0  0
    2.0033   -5.9022    3.6423 H   0  0  0  0  0  0  0  0  0  0  0  0
   -2.2718    0.3259   -0.3032 Au  0  0  0  0  0  0  0  0  0  0  0  0
  1 27  1  0  0  0  0
  1 29  1  0  0  0  0
  1 28  1  0  0  0  0
  2  1  1  0  0  0  0
  3 30  1  0  0  0  0
  3  2  2  0  0  0  0
  4  3  1  0  0  0  0
  5  4  2  0  0  0  0
  5  6  1  0  0  0  0
  6  7  2  0  0  0  0
  7  2  1  0  0  0  0
  7 33  1  0  0  0  0
  8  5  1  0  0  0  0
  9 10  2  0  0  0  0
  9  8  1  0  0  0  0
 11 17  1  1  0  0  0
 11  9  1  0  0  0  0
 12 13  1  0  0  0  0
 12 11  1  0  0  0  0
 13 35  1  0  0  0  0
 14 12  2  0  0  0  0
 15 16  1  0  0  0  0
 15 14  2  0  0  0  0
 16 17  1  0  0  0  0
 17 18  1  0  0  0  0
 17 39  1  1  0  0  0
 18 19  2  0  0  0  0
 19 40  1  0  0  0  0
 20 19  1  0  0  0  0
 20 41  1  0  0  0  0
 21 20  2  0  0  0  0
 22 23  2  0  0  0  0
 22 21  1  0  0  0  0
 23 18  1  0  0  0  0
 24 23  1  0  0  0  0
 25 22  1  0  0  0  0
 26 15  1  0  0  0  0
 31  4  1  0  0  0  0
 32  6  1  0  0  0  0
 34  8  1  0  0  0  0
 36 13  1  0  0  0  0
 37 13  1  0  0  0  0
 38 16  1  0  0  0  0
 42 21  1  0  0  0  0
 43 26  1  0  0  0  0
M  RAD  1  11   2
M  END
