24343386.xyz
 OpenBabel07262113443D
Sc1c2CCCCc2nc2c1cccc2
 28 30  0  0  1  0  0  0  0  0999 V2000
    0.0000    0.0000    0.0000 S   0  0  0  0  0  0  0  0  0  0  0  0
   -0.0000   -0.0000    1.7840 C   0  0  0  0  0  0  0  0  0  0  0  0
    1.2156    0.0000    2.4708 C   0  0  0  0  0  0  0  0  0  0  0  0
    2.5428    0.0837    1.7468 C   0  0  0  0  0  0  0  0  0  0  0  0
    3.7243    0.4392    2.6501 C   0  0  0  0  0  0  0  0  0  0  0  0
    3.7066   -0.4117    3.9177 C   0  0  0  0  0  0  0  0  0  0  0  0
    2.4479   -0.1022    4.7239 C   0  0  0  0  0  0  0  0  0  0  0  0
    1.1730   -0.1017    3.9028 C   0  0  0  0  0  0  0  0  0  0  0  0
    0.0510   -0.1627    4.5891 N   0  0  0  0  0  0  0  0  0  0  0  0
   -1.1394   -0.1432    3.9401 C   0  0  0  0  0  0  0  0  0  0  0  0
   -1.2323   -0.0761    2.5130 C   0  0  1  0  0  0  0  0  0  0  0  0
   -2.5190   -0.0821    1.9138 C   0  0  0  0  0  0  0  0  0  0  0  0
   -3.6585   -0.1317    2.6922 C   0  0  0  0  0  0  0  0  0  0  0  0
   -3.5663   -0.1861    4.1046 C   0  0  0  0  0  0  0  0  0  0  0  0
   -2.3310   -0.1967    4.7150 C   0  0  0  0  0  0  0  0  0  0  0  0
   -0.6753    2.1564   -0.4735 Au  0  0  0  0  0  0  0  0  0  0  0  0
    2.4513    0.7966    0.9135 H   0  0  0  0  0  0  0  0  0  0  0  0
    2.7361   -0.8920    1.2648 H   0  0  0  0  0  0  0  0  0  0  0  0
    4.6642    0.3053    2.0918 H   0  0  0  0  0  0  0  0  0  0  0  0
    3.6734    1.5070    2.9296 H   0  0  0  0  0  0  0  0  0  0  0  0
    3.7246   -1.4811    3.6404 H   0  0  0  0  0  0  0  0  0  0  0  0
    4.6026   -0.2302    4.5322 H   0  0  0  0  0  0  0  0  0  0  0  0
    2.3055   -0.8006    5.5621 H   0  0  0  0  0  0  0  0  0  0  0  0
    2.5426    0.8994    5.1828 H   0  0  0  0  0  0  0  0  0  0  0  0
   -2.5900   -0.0581    0.8266 H   0  0  0  0  0  0  0  0  0  0  0  0
   -4.6409   -0.1361    2.2140 H   0  0  0  0  0  0  0  0  0  0  0  0
   -4.4774   -0.2257    4.7065 H   0  0  0  0  0  0  0  0  0  0  0  0
   -2.2182   -0.2450    5.7993 H   0  0  0  0  0  0  0  0  0  0  0  0
  1  2  1  0  0  0  0
  2  3  2  0  0  0  0
  3  8  1  0  0  0  0
  4  3  1  0  0  0  0
  4  5  1  0  0  0  0
  5 20  1  0  0  0  0
  5  6  1  0  0  0  0
  6 22  1  0  0  0  0
  6  7  1  0  0  0  0
  7 24  1  0  0  0  0
  7 23  1  0  0  0  0
  8  9  2  0  0  0  0
  8  7  1  0  0  0  0
 10  9  2  0  0  0  0
 10 15  1  0  0  0  0
 11  2  1  1  0  0  0
 11 10  1  0  0  0  0
 12 11  1  0  0  0  0
 12 13  2  0  0  0  0
 13 14  1  0  0  0  0
 14 27  1  0  0  0  0
 14 15  2  0  0  0  0
 15 28  1  0  0  0  0
 16  1  1  0  0  0  0
 17  4  1  0  0  0  0
 18  4  1  0  0  0  0
 19  5  1  0  0  0  0
 21  6  1  0  0  0  0
 25 12  1  0  0  0  0
 26 13  1  0  0  0  0
M  RAD  1  11   2
M  END
