259554604.xyz
 OpenBabel07262113453D
SCCn1ncc(c1)S(=O)(=O)C
 22 22  0  0  0  0  0  0  0  0999 V2000
    0.0000    0.0000    0.0000 S   0  0  0  0  0  0  0  0  0  0  0  0
   -0.0000    0.0000    1.8289 C   0  0  0  0  0  0  0  0  0  0  0  0
    1.3990    0.0000    2.4408 C   0  0  0  0  0  0  0  0  0  0  0  0
    1.3490    0.0682    3.8927 N   0  0  0  0  0  0  0  0  0  0  0  0
    0.8953   -0.9956    4.5879 N   0  0  0  0  0  0  0  0  0  0  0  0
    0.9285   -0.6305    5.8626 C   0  0  0  0  0  0  0  0  0  0  0  0
    1.4026    0.6996    5.9864 C   0  0  0  0  0  0  0  0  0  0  0  0
    1.6664    1.1159    4.6890 C   0  0  0  0  0  0  0  0  0  0  0  0
    1.6899    1.6359    7.4527 S   0  0  0  0  0  0  0  0  0  0  0  0
    2.5942    2.7376    7.0971 O   0  0  0  0  0  0  0  0  0  0  0  0
    2.0041    0.6938    8.5325 O   0  0  0  0  0  0  0  0  0  0  0  0
    0.0858    2.3657    7.8363 C   0  0  0  0  0  0  0  0  0  0  0  0
    0.9167   -2.0400   -0.5159 Au  0  0  0  0  0  0  0  0  0  0  0  0
   -0.5261    0.9338    2.0921 H   0  0  0  0  0  0  0  0  0  0  0  0
   -0.5878   -0.8365    2.2303 H   0  0  0  0  0  0  0  0  0  0  0  0
    1.9837    0.8555    2.0763 H   0  0  0  0  0  0  0  0  0  0  0  0
    1.9300   -0.9222    2.1598 H   0  0  0  0  0  0  0  0  0  0  0  0
    0.6365   -1.3164    6.6562 H   0  0  0  0  0  0  0  0  0  0  0  0
    2.0690    2.0531    4.3126 H   0  0  0  0  0  0  0  0  0  0  0  0
    0.2462    2.9482    8.7543 H   0  0  0  0  0  0  0  0  0  0  0  0
   -0.6411    1.5622    8.0095 H   0  0  0  0  0  0  0  0  0  0  0  0
   -0.2174    3.0189    7.0086 H   0  0  0  0  0  0  0  0  0  0  0  0
  1  2  1  0  0  0  0
  2 14  1  0  0  0  0
  2 15  1  0  0  0  0
  2  3  1  0  0  0  0
  3  4  1  0  0  0  0
  4  5  1  0  0  0  0
  4  8  1  0  0  0  0
  5  6  2  0  0  0  0
  6  7  1  0  0  0  0
  6 18  1  0  0  0  0
  7  9  1  0  0  0  0
  8  7  2  0  0  0  0
  9 12  1  0  0  0  0
  9 11  2  0  0  0  0
 10  9  2  0  0  0  0
 12 21  1  0  0  0  0
 12 20  1  0  0  0  0
 13  1  1  0  0  0  0
 16  3  1  0  0  0  0
 17  3  1  0  0  0  0
 19  8  1  0  0  0  0
 22 12  1  0  0  0  0
M  END
