259766825.xyz
 OpenBabel07262113453D
Sc1nnc(n1C1CCCCC1)c1ccsc1
 32 34  0  0  0  0  0  0  0  0999 V2000
    0.0000    0.0000    0.0000 S   0  0  0  0  0  0  0  0  0  0  0  0
    0.0000    0.0000    1.7595 C   0  0  0  0  0  0  0  0  0  0  0  0
    1.0616    0.0000    2.5436 N   0  0  0  0  0  0  0  0  0  0  0  0
    0.6233   -0.0107    3.8291 N   0  0  0  0  0  0  0  0  0  0  0  0
   -0.6964   -0.0265    3.8295 C   0  0  0  0  0  0  0  0  0  0  0  0
   -1.1501   -0.0087    2.5128 N   0  0  0  0  0  0  0  0  0  0  0  0
   -2.4983    0.0770    1.9421 C   0  0  0  0  0  0  0  0  0  0  0  0
   -3.3080    1.2670    2.4680 C   0  0  0  0  0  0  0  0  0  0  0  0
   -4.5884    1.4489    1.6278 C   0  0  0  0  0  0  0  0  0  0  0  0
   -5.1869    0.1055    1.1471 C   0  0  0  0  0  0  0  0  0  0  0  0
   -4.7829   -1.0526    2.0640 C   0  0  0  0  0  0  0  0  0  0  0  0
   -3.2611   -1.2661    2.0309 C   0  0  0  0  0  0  0  0  0  0  0  0
   -1.4535   -0.0493    5.0822 C   0  0  0  0  0  0  0  0  0  0  0  0
   -0.7990    0.3450    6.3042 C   0  0  0  0  0  0  0  0  0  0  0  0
   -1.6069    0.2423    7.4013 C   0  0  0  0  0  0  0  0  0  0  0  0
   -3.1832   -0.3439    6.9853 S   0  0  0  0  0  0  0  0  0  0  0  0
   -2.7532   -0.4544    5.3160 C   0  0  0  0  0  0  0  0  0  0  0  0
    2.3102    0.1305   -0.1984 Au  0  0  0  0  0  0  0  0  0  0  0  0
   -2.3203    0.2865    0.8768 H   0  0  0  0  0  0  0  0  0  0  0  0
   -3.5632    1.1163    3.5248 H   0  0  0  0  0  0  0  0  0  0  0  0
   -2.6848    2.1730    2.4260 H   0  0  0  0  0  0  0  0  0  0  0  0
   -5.3287    1.9974    2.2315 H   0  0  0  0  0  0  0  0  0  0  0  0
   -4.3730    2.0857    0.7544 H   0  0  0  0  0  0  0  0  0  0  0  0
   -6.2830    0.1814    1.0773 H   0  0  0  0  0  0  0  0  0  0  0  0
   -4.8319   -0.1200    0.1263 H   0  0  0  0  0  0  0  0  0  0  0  0
   -5.1153   -0.8294    3.0934 H   0  0  0  0  0  0  0  0  0  0  0  0
   -5.2971   -1.9819    1.7736 H   0  0  0  0  0  0  0  0  0  0  0  0
   -2.9829   -1.8783    1.1585 H   0  0  0  0  0  0  0  0  0  0  0  0
   -2.9253   -1.8315    2.9123 H   0  0  0  0  0  0  0  0  0  0  0  0
    0.2357    0.6837    6.3210 H   0  0  0  0  0  0  0  0  0  0  0  0
   -1.3675    0.4838    8.4355 H   0  0  0  0  0  0  0  0  0  0  0  0
   -3.4839   -0.8373    4.6128 H   0  0  0  0  0  0  0  0  0  0  0  0
  1  2  1  0  0  0  0
  2  6  1  0  0  0  0
  2  3  2  0  0  0  0
  3  4  1  0  0  0  0
  4  5  2  0  0  0  0
  5 13  1  0  0  0  0
  6  5  1  0  0  0  0
  7 12  1  0  0  0  0
  7  8  1  0  0  0  0
  7  6  1  0  0  0  0
  8 20  1  0  0  0  0
  9 22  1  0  0  0  0
  9  8  1  0  0  0  0
 10  9  1  0  0  0  0
 10 11  1  0  0  0  0
 11 26  1  0  0  0  0
 12 11  1  0  0  0  0
 12 29  1  0  0  0  0
 13 17  2  0  0  0  0
 13 14  1  0  0  0  0
 14 30  1  0  0  0  0
 14 15  2  0  0  0  0
 15 31  1  0  0  0  0
 16 15  1  0  0  0  0
 17 16  1  0  0  0  0
 18  1  1  0  0  0  0
 19  7  1  0  0  0  0
 21  8  1  0  0  0  0
 23  9  1  0  0  0  0
 24 10  1  0  0  0  0
 25 10  1  0  0  0  0
 27 11  1  0  0  0  0
 28 12  1  0  0  0  0
 32 17  1  0  0  0  0
M  END
