259767722.xyz
 OpenBabel07262113453D
CCC(c1nnc(n1C1CCCC1)S)(F)F
 31 32  0  0  0  0  0  0  0  0999 V2000
   -1.6194    0.0987    7.5818 C   0  0  0  0  0  0  0  0  0  0  0  0
   -0.7117    0.0639    6.3551 C   0  0  0  0  0  0  0  0  0  0  0  0
   -1.4959    0.0474    5.0590 C   0  0  0  0  0  0  0  0  0  0  0  0
   -0.6438    0.0146    3.8269 C   0  0  0  0  0  0  0  0  0  0  0  0
    0.6652    0.0102    3.8244 N   0  0  0  0  0  0  0  0  0  0  0  0
    1.0784    0.0000    2.5289 N   0  0  0  0  0  0  0  0  0  0  0  0
    0.0000    0.0000    1.7571 C   0  0  0  0  0  0  0  0  0  0  0  0
   -1.1308    0.0044    2.5360 N   0  0  0  0  0  0  0  0  0  0  0  0
   -2.5349    0.0353    2.1169 C   0  0  0  0  0  0  0  0  0  0  0  0
   -2.9490   -1.1265    1.1673 C   0  0  0  0  0  0  0  0  0  0  0  0
   -3.7328   -0.4565    0.0174 C   0  0  0  0  0  0  0  0  0  0  0  0
   -4.1515    0.9150    0.5732 C   0  0  0  0  0  0  0  0  0  0  0  0
   -2.9337    1.3379    1.3989 C   0  0  0  0  0  0  0  0  0  0  0  0
    0.0000    0.0000    0.0000 S   0  0  0  0  0  0  0  0  0  0  0  0
   -2.3242    1.1501    4.9946 F   0  0  0  0  0  0  0  0  0  0  0  0
   -2.3518   -1.0353    5.0396 F   0  0  0  0  0  0  0  0  0  0  0  0
   -1.0173    0.1096    8.5021 H   0  0  0  0  0  0  0  0  0  0  0  0
   -2.2768   -0.7826    7.6116 H   0  0  0  0  0  0  0  0  0  0  0  0
   -2.2556    0.9959    7.5766 H   0  0  0  0  0  0  0  0  0  0  0  0
   -0.0623   -0.8235    6.3552 H   0  0  0  0  0  0  0  0  0  0  0  0
   -0.0415    0.9348    6.3205 H   0  0  0  0  0  0  0  0  0  0  0  0
   -3.1129   -0.0444    3.0416 H   0  0  0  0  0  0  0  0  0  0  0  0
   -2.0731   -1.6790    0.8003 H   0  0  0  0  0  0  0  0  0  0  0  0
   -3.5708   -1.8449    1.7217 H   0  0  0  0  0  0  0  0  0  0  0  0
   -3.0658   -0.3094   -0.8473 H   0  0  0  0  0  0  0  0  0  0  0  0
   -4.5845   -1.0616   -0.3266 H   0  0  0  0  0  0  0  0  0  0  0  0
   -4.4141    1.6406   -0.2113 H   0  0  0  0  0  0  0  0  0  0  0  0
   -5.0329    0.8078    1.2298 H   0  0  0  0  0  0  0  0  0  0  0  0
   -3.1231    2.1526    2.1130 H   0  0  0  0  0  0  0  0  0  0  0  0
   -2.1198    1.6568    0.7279 H   0  0  0  0  0  0  0  0  0  0  0  0
    2.3164   -0.0103   -0.2011 Au  0  0  0  0  0  0  0  0  0  0  0  0
  1 18  1  0  0  0  0
  1 17  1  0  0  0  0
  2 20  1  0  0  0  0
  2  1  1  0  0  0  0
  3  2  1  0  0  0  0
  4  3  1  0  0  0  0
  5  4  2  0  0  0  0
  6  5  1  0  0  0  0
  7  6  2  0  0  0  0
  7  8  1  0  0  0  0
  8  4  1  0  0  0  0
  9  8  1  0  0  0  0
  9 22  1  0  0  0  0
 10 24  1  0  0  0  0
 10  9  1  0  0  0  0
 11 12  1  0  0  0  0
 11 10  1  0  0  0  0
 12 28  1  0  0  0  0
 12 13  1  0  0  0  0
 13 29  1  0  0  0  0
 13  9  1  0  0  0  0
 14  7  1  0  0  0  0
 15  3  1  0  0  0  0
 16  3  1  0  0  0  0
 19  1  1  0  0  0  0
 21  2  1  0  0  0  0
 23 10  1  0  0  0  0
 25 11  1  0  0  0  0
 26 11  1  0  0  0  0
 27 12  1  0  0  0  0
 30 13  1  0  0  0  0
 31 14  1  0  0  0  0
M  END
