259745148.xyz
 OpenBabel07262113453D
COc1cccc2c1CCC(C2)C(=N)S
 30 31  0  0  1  0  0  0  0  0999 V2000
   -5.9819    0.1615    6.8992 C   0  0  0  0  0  0  0  0  0  0  0  0
   -4.8298    0.0581    6.0978 O   0  0  0  0  0  0  0  0  0  0  0  0
   -4.6589    0.9282    5.0651 C   0  0  0  0  0  0  0  0  0  0  0  0
   -5.5805    1.9238    4.7260 C   0  0  0  0  0  0  0  0  0  0  0  0
   -5.3153    2.7566    3.6325 C   0  0  0  0  0  0  0  0  0  0  0  0
   -4.1505    2.5963    2.8915 C   0  0  0  0  0  0  0  0  0  0  0  0
   -3.2178    1.6014    3.2351 C   0  0  0  0  0  0  0  0  0  0  0  0
   -3.4620    0.7613    4.3303 C   0  0  0  0  0  0  0  0  0  0  0  0
   -2.5064   -0.3405    4.7295 C   0  0  0  0  0  0  0  0  0  0  0  0
   -1.1412   -0.2464    4.0482 C   0  0  0  0  0  0  0  0  0  0  0  0
   -1.3066    0.0726    2.5619 C   0  0  1  0  0  0  0  0  0  0  0  0
   -1.9506    1.4610    2.4204 C   0  0  0  0  0  0  0  0  0  0  0  0
   -0.0000    0.0000    1.8021 C   0  0  0  0  0  0  0  0  0  0  0  0
    1.1154    0.0000    2.4107 N   0  0  0  0  0  0  0  0  0  0  0  0
    0.0000    0.0000    0.0000 S   0  0  0  0  0  0  0  0  0  0  0  0
   -6.0474    1.1447    7.3992 H   0  0  0  0  0  0  0  0  0  0  0  0
   -6.9052    0.0019    6.3136 H   0  0  0  0  0  0  0  0  0  0  0  0
   -5.9046   -0.6230    7.6638 H   0  0  0  0  0  0  0  0  0  0  0  0
   -6.4998    2.0558    5.2954 H   0  0  0  0  0  0  0  0  0  0  0  0
   -6.0359    3.5324    3.3622 H   0  0  0  0  0  0  0  0  0  0  0  0
   -3.9504    3.2439    2.0340 H   0  0  0  0  0  0  0  0  0  0  0  0
   -2.3911   -0.3415    5.8245 H   0  0  0  0  0  0  0  0  0  0  0  0
   -2.9782   -1.3130    4.4952 H   0  0  0  0  0  0  0  0  0  0  0  0
   -0.5800   -1.1827    4.1791 H   0  0  0  0  0  0  0  0  0  0  0  0
   -0.5281    0.5440    4.5097 H   0  0  0  0  0  0  0  0  0  0  0  0
   -1.9917   -0.6695    2.1132 H   0  0  0  0  0  0  0  0  0  0  0  0
   -2.1664    1.6849    1.3646 H   0  0  0  0  0  0  0  0  0  0  0  0
   -1.2133    2.2162    2.7481 H   0  0  0  0  0  0  0  0  0  0  0  0
    1.9204   -0.0500    1.7762 H   0  0  0  0  0  0  0  0  0  0  0  0
   -2.1476   -0.4105   -0.7142 Au  0  0  0  0  0  0  0  0  0  0  0  0
  1 16  1  0  0  0  0
  1 18  1  0  0  0  0
  2  1  1  0  0  0  0
  3  2  1  0  0  0  0
  4  3  1  0  0  0  0
  4 19  1  0  0  0  0
  5  4  2  0  0  0  0
  6  7  2  0  0  0  0
  6  5  1  0  0  0  0
  7  8  1  0  0  0  0
  8  9  1  0  0  0  0
  8  3  2  0  0  0  0
  9 22  1  0  0  0  0
 10 24  1  0  0  0  0
 10 25  1  0  0  0  0
 10  9  1  0  0  0  0
 11 26  1  6  0  0  0
 11 10  1  0  0  0  0
 12 11  1  0  0  0  0
 12 28  1  0  0  0  0
 12  7  1  0  0  0  0
 13 14  2  0  0  0  0
 13 11  1  0  0  0  0
 15 13  1  0  0  0  0
 17  1  1  0  0  0  0
 20  5  1  0  0  0  0
 21  6  1  0  0  0  0
 23  9  1  0  0  0  0
 27 12  1  0  0  0  0
 29 14  1  0  0  0  0
 30 15  1  0  0  0  0
M  END
