260006766.xyz
 OpenBabel07262113453D
COc1cc(S)c(c(c1)Cl)F
 17 17  0  0  0  0  0  0  0  0999 V2000
    3.6526    0.0424    3.9134 C   0  0  0  0  0  0  0  0  0  0  0  0
    2.4129    0.1312    4.5803 O   0  0  0  0  0  0  0  0  0  0  0  0
    1.2737    0.1109    3.8483 C   0  0  0  0  0  0  0  0  0  0  0  0
    1.2334   -0.0000    2.4536 C   0  0  0  0  0  0  0  0  0  0  0  0
    0.0000   -0.0000    1.7755 C   0  0  0  0  0  0  0  0  0  0  0  0
    0.0000    0.0000    0.0000 S   0  0  0  0  0  0  0  0  0  0  0  0
   -1.1885    0.0951    2.5102 C   0  0  0  0  0  0  0  0  0  0  0  0
   -1.1445    0.1783    3.9069 C   0  0  0  0  0  0  0  0  0  0  0  0
    0.0753    0.1957    4.5766 C   0  0  0  0  0  0  0  0  0  0  0  0
   -2.6365    0.2710    4.7959 Cl  0  0  0  0  0  0  0  0  0  0  0  0
   -2.3685    0.0688    1.8902 F   0  0  0  0  0  0  0  0  0  0  0  0
    4.4281    0.0835    4.6891 H   0  0  0  0  0  0  0  0  0  0  0  0
    3.7999    0.8829    3.2119 H   0  0  0  0  0  0  0  0  0  0  0  0
    3.7502   -0.9067    3.3566 H   0  0  0  0  0  0  0  0  0  0  0  0
    2.1404   -0.0913    1.8594 H   0  0  0  0  0  0  0  0  0  0  0  0
   -1.1907   -1.9023   -0.5206 Au  0  0  0  0  0  0  0  0  0  0  0  0
    0.1108    0.2676    5.6632 H   0  0  0  0  0  0  0  0  0  0  0  0
  1  2  1  0  0  0  0
  1 12  1  0  0  0  0
  3  9  2  0  0  0  0
  3  2  1  0  0  0  0
  4  3  1  0  0  0  0
  5  4  2  0  0  0  0
  5  7  1  0  0  0  0
  6  5  1  0  0  0  0
  7  8  2  0  0  0  0
  8  9  1  0  0  0  0
  8 10  1  0  0  0  0
  9 17  1  0  0  0  0
 11  7  1  0  0  0  0
 13  1  1  0  0  0  0
 14  1  1  0  0  0  0
 15  4  1  0  0  0  0
 16  6  1  0  0  0  0
M  END
