260379950.xyz
 OpenBabel07262113453D
N#Cc1cc(S)ccc1CC
 20 20  0  0  0  0  0  0  0  0999 V2000
   -3.4470    0.3186    5.1762 N   0  0  0  0  0  0  0  0  0  0  0  0
   -2.4436    0.2518    4.5958 C   0  0  0  0  0  0  0  0  0  0  0  0
   -1.1947    0.1671    3.8927 C   0  0  0  0  0  0  0  0  0  0  0  0
   -1.2043    0.0888    2.4931 C   0  0  0  0  0  0  0  0  0  0  0  0
    0.0000    0.0000    1.7823 C   0  0  0  0  0  0  0  0  0  0  0  0
    0.0000    0.0000    0.0000 S   0  0  0  0  0  0  0  0  0  0  0  0
    1.2074    0.0000    2.4971 C   0  0  0  0  0  0  0  0  0  0  0  0
    1.2107    0.0816    3.8904 C   0  0  0  0  0  0  0  0  0  0  0  0
    0.0214    0.1647    4.6236 C   0  0  0  0  0  0  0  0  0  0  0  0
   -0.0117    0.2508    6.1327 C   0  0  0  0  0  0  0  0  0  0  0  0
    1.3401    0.2401    6.8389 C   0  0  0  0  0  0  0  0  0  0  0  0
   -2.1525    0.0943    1.9544 H   0  0  0  0  0  0  0  0  0  0  0  0
   -0.1695   -2.2391   -0.5129 Au  0  0  0  0  0  0  0  0  0  0  0  0
    2.1485   -0.0661    1.9480 H   0  0  0  0  0  0  0  0  0  0  0  0
    2.1670    0.0792    4.4140 H   0  0  0  0  0  0  0  0  0  0  0  0
   -0.6354   -0.5788    6.5094 H   0  0  0  0  0  0  0  0  0  0  0  0
   -0.5701    1.1618    6.4113 H   0  0  0  0  0  0  0  0  0  0  0  0
    1.9021   -0.6845    6.6322 H   0  0  0  0  0  0  0  0  0  0  0  0
    1.1993    0.3057    7.9279 H   0  0  0  0  0  0  0  0  0  0  0  0
    1.9677    1.0923    6.5338 H   0  0  0  0  0  0  0  0  0  0  0  0
  2  1  3  0  0  0  0
  3  2  1  0  0  0  0
  3  9  2  0  0  0  0
  4  3  1  0  0  0  0
  5  4  2  0  0  0  0
  5  7  1  0  0  0  0
  6  5  1  0  0  0  0
  7  8  2  0  0  0  0
  8 15  1  0  0  0  0
  8  9  1  0  0  0  0
  9 10  1  0  0  0  0
 10 17  1  0  0  0  0
 10 16  1  0  0  0  0
 10 11  1  0  0  0  0
 11 19  1  0  0  0  0
 12  4  1  0  0  0  0
 13  6  1  0  0  0  0
 14  7  1  0  0  0  0
 18 11  1  0  0  0  0
 20 11  1  0  0  0  0
M  END
