260334383.xyz
 OpenBabel07262113453D
CCC1(CCC1)n1c(S)nc2c1cc(F)cc2F
 32 34  0  0  1  0  0  0  0  0999 V2000
    2.8187    2.5133    2.6747 C   0  0  0  0  0  0  0  0  0  0  0  0
    2.9059    1.4863    1.5493 C   0  0  0  0  0  0  0  0  0  0  0  0
    2.5442    0.0496    1.9569 C   0  0  0  0  0  0  0  0  0  0  0  0
    3.6345   -0.6528    2.8176 C   0  0  0  0  0  0  0  0  0  0  0  0
    4.2021   -1.2914    1.5312 C   0  0  0  0  0  0  0  0  0  0  0  0
    2.8619   -0.9753    0.8278 C   0  0  0  0  0  0  0  0  0  0  0  0
    1.1812   -0.0000    2.4988 N   0  0  0  0  0  0  0  0  0  0  0  0
    0.0000   -0.0000    1.7636 C   0  0  0  0  0  0  0  0  0  0  0  0
    0.0000    0.0000    0.0000 S   0  0  0  0  0  0  0  0  0  0  0  0
   -1.0773    0.0236    2.5163 N   0  0  0  0  0  0  0  0  0  0  0  0
   -0.6156    0.0646    3.8146 C   0  0  0  0  0  0  0  0  0  0  0  0
    0.8043    0.0688    3.8375 C   0  0  2  0  0  0  0  0  0  0  0  0
    1.5358    0.1550    5.0308 C   0  0  0  0  0  0  0  0  0  0  0  0
    0.7871    0.2127    6.2001 C   0  0  0  0  0  0  0  0  0  0  0  0
    1.4379    0.2981    7.3722 F   0  0  0  0  0  0  0  0  0  0  0  0
   -0.6157    0.1931    6.2292 C   0  0  0  0  0  0  0  0  0  0  0  0
   -1.3119    0.1219    5.0298 C   0  0  0  0  0  0  0  0  0  0  0  0
   -2.6469    0.1157    5.0353 F   0  0  0  0  0  0  0  0  0  0  0  0
    3.1196    3.5088    2.3142 H   0  0  0  0  0  0  0  0  0  0  0  0
    3.4766    2.2540    3.5193 H   0  0  0  0  0  0  0  0  0  0  0  0
    1.7938    2.5965    3.0661 H   0  0  0  0  0  0  0  0  0  0  0  0
    3.9248    1.4716    1.1278 H   0  0  0  0  0  0  0  0  0  0  0  0
    2.2347    1.7765    0.7234 H   0  0  0  0  0  0  0  0  0  0  0  0
    4.2946   -0.0027    3.4103 H   0  0  0  0  0  0  0  0  0  0  0  0
    3.1940   -1.4115    3.4774 H   0  0  0  0  0  0  0  0  0  0  0  0
    4.4929   -2.3493    1.5923 H   0  0  0  0  0  0  0  0  0  0  0  0
    5.0440   -0.7226    1.1106 H   0  0  0  0  0  0  0  0  0  0  0  0
    2.8949   -0.5787   -0.1965 H   0  0  0  0  0  0  0  0  0  0  0  0
    2.1707   -1.8285    0.8555 H   0  0  0  0  0  0  0  0  0  0  0  0
   -2.3043    0.0840   -0.2377 Au  0  0  0  0  0  0  0  0  0  0  0  0
    2.6198    0.1968    5.0844 H   0  0  0  0  0  0  0  0  0  0  0  0
   -1.1483    0.2415    7.1787 H   0  0  0  0  0  0  0  0  0  0  0  0
  1 21  1  0  0  0  0
  1 20  1  0  0  0  0
  2  3  1  0  0  0  0
  2  1  1  0  0  0  0
  3  7  1  0  0  0  0
  3  4  1  0  0  0  0
  4 24  1  0  0  0  0
  4 25  1  0  0  0  0
  5 26  1  0  0  0  0
  5  4  1  0  0  0  0
  6 29  1  0  0  0  0
  6  5  1  0  0  0  0
  6  3  1  0  0  0  0
  7 12  1  0  0  0  0
  8  7  1  0  0  0  0
  8 10  2  0  0  0  0
  9  8  1  0  0  0  0
 10 11  2  0  0  0  0
 11 17  1  0  0  0  0
 12 11  1  6  0  0  0
 12 13  1  0  0  0  0
 13 31  1  0  0  0  0
 13 14  2  0  0  0  0
 14 16  1  0  0  0  0
 14 15  1  0  0  0  0
 16 32  1  0  0  0  0
 17 18  1  0  0  0  0
 17 16  2  0  0  0  0
 19  1  1  0  0  0  0
 22  2  1  0  0  0  0
 23  2  1  0  0  0  0
 27  5  1  0  0  0  0
 28  6  1  0  0  0  0
 30  9  1  0  0  0  0
M  RAD  1  12   2
M  END
