260928695.xyz
 OpenBabel07262113453D
CCn1c(S)nnc1c1cccc2c1cccn2
 30 32  0  0  1  0  0  0  0  0999 V2000
   -2.7993    1.6758    1.7032 C   0  0  0  0  0  0  0  0  0  0  0  0
   -2.5086    0.2075    1.9972 C   0  0  0  0  0  0  0  0  0  0  0  0
   -1.1537    0.0012    2.5010 N   0  0  0  0  0  0  0  0  0  0  0  0
   -0.0000   -0.0000    1.7569 C   0  0  0  0  0  0  0  0  0  0  0  0
    0.0000    0.0000    0.0000 S   0  0  0  0  0  0  0  0  0  0  0  0
    1.0514   -0.0000    2.5561 N   0  0  0  0  0  0  0  0  0  0  0  0
    0.5985    0.0155    3.8456 N   0  0  0  0  0  0  0  0  0  0  0  0
   -0.7144    0.0203    3.8180 C   0  0  0  0  0  0  0  0  0  0  0  0
   -1.6035    0.0677    4.9922 C   0  0  0  0  0  0  0  0  0  0  0  0
   -1.4954    1.1267    5.8788 C   0  0  0  0  0  0  0  0  0  0  0  0
   -2.3326    1.2162    7.0159 C   0  0  0  0  0  0  0  0  0  0  0  0
   -3.2830    0.2498    7.2617 C   0  0  0  0  0  0  0  0  0  0  0  0
   -3.4150   -0.8673    6.3926 C   0  0  0  0  0  0  0  0  0  0  0  0
   -2.5520   -0.9748    5.2518 C   0  0  2  0  0  0  0  0  0  0  0  0
   -2.6726   -2.1468    4.4571 C   0  0  0  0  0  0  0  0  0  0  0  0
   -3.6182   -3.0919    4.7850 C   0  0  0  0  0  0  0  0  0  0  0  0
   -4.4475   -2.8658    5.9148 C   0  0  0  0  0  0  0  0  0  0  0  0
   -4.3515   -1.8102    6.6905 N   0  0  0  0  0  0  0  0  0  0  0  0
   -2.6993    2.2806    2.6174 H   0  0  0  0  0  0  0  0  0  0  0  0
   -3.8262    1.7898    1.3232 H   0  0  0  0  0  0  0  0  0  0  0  0
   -2.1046    2.0677    0.9452 H   0  0  0  0  0  0  0  0  0  0  0  0
   -3.2076   -0.1857    2.7461 H   0  0  0  0  0  0  0  0  0  0  0  0
   -2.6217   -0.4073    1.0909 H   0  0  0  0  0  0  0  0  0  0  0  0
    2.3127   -0.0951   -0.1975 Au  0  0  0  0  0  0  0  0  0  0  0  0
   -0.7513    1.9009    5.6835 H   0  0  0  0  0  0  0  0  0  0  0  0
   -2.2246    2.0660    7.6937 H   0  0  0  0  0  0  0  0  0  0  0  0
   -3.9524    0.2973    8.1220 H   0  0  0  0  0  0  0  0  0  0  0  0
   -2.0073   -2.2946    3.6041 H   0  0  0  0  0  0  0  0  0  0  0  0
   -3.7317   -4.0060    4.1987 H   0  0  0  0  0  0  0  0  0  0  0  0
   -5.2131   -3.6060    6.1790 H   0  0  0  0  0  0  0  0  0  0  0  0
  1  2  1  0  0  0  0
  1 19  1  0  0  0  0
  2  3  1  0  0  0  0
  2 22  1  0  0  0  0
  3  8  1  0  0  0  0
  4  3  1  0  0  0  0
  4  6  2  0  0  0  0
  5  4  1  0  0  0  0
  6  7  1  0  0  0  0
  8  7  2  0  0  0  0
  8  9  1  0  0  0  0
  9 14  1  0  0  0  0
  9 10  2  0  0  0  0
 10 11  1  0  0  0  0
 11 12  2  0  0  0  0
 11 26  1  0  0  0  0
 12 27  1  0  0  0  0
 13 18  2  0  0  0  0
 13 12  1  0  0  0  0
 14 15  1  1  0  0  0
 14 13  1  0  0  0  0
 15 16  2  0  0  0  0
 16 17  1  0  0  0  0
 17 30  1  0  0  0  0
 17 18  2  0  0  0  0
 20  1  1  0  0  0  0
 21  1  1  0  0  0  0
 23  2  1  0  0  0  0
 24  5  1  0  0  0  0
 25 10  1  0  0  0  0
 28 15  1  0  0  0  0
 29 16  1  0  0  0  0
M  RAD  1  14   2
M  END
