26124947.xyz
 OpenBabel07262113453D
CCc1nnc(n1N=Cc1c[nH]c2c1cc(Br)cc2)S
 32 34  0  0  0  0  0  0  0  0999 V2000
    2.2387    1.2857    5.2489 C   0  0  0  0  0  0  0  0  0  0  0  0
    1.5745   -0.0802    5.0265 C   0  0  0  0  0  0  0  0  0  0  0  0
    0.6878   -0.1097    3.8289 C   0  0  0  0  0  0  0  0  0  0  0  0
   -0.6288   -0.2171    3.8160 N   0  0  0  0  0  0  0  0  0  0  0  0
   -1.0611   -0.1354    2.5221 N   0  0  0  0  0  0  0  0  0  0  0  0
   -0.0000    0.0000    1.7454 C   0  0  0  0  0  0  0  0  0  0  0  0
    1.1336    0.0000    2.5373 N   0  0  0  0  0  0  0  0  0  0  0  0
    2.4533    0.1568    2.1171 N   0  0  0  0  0  0  0  0  0  0  0  0
    3.0528   -0.9568    1.8472 C   0  0  0  0  0  0  0  0  0  0  0  0
    2.6002   -2.3252    1.9051 C   0  0  0  0  0  0  0  0  0  0  0  0
    1.3537   -2.8580    2.2500 C   0  0  0  0  0  0  0  0  0  0  0  0
    1.3957   -4.2131    2.1376 N   0  0  0  0  0  0  0  0  0  0  0  0
    2.6497   -4.6282    1.7210 C   0  0  0  0  0  0  0  0  0  0  0  0
    3.4420   -3.4610    1.5632 C   0  0  0  0  0  0  0  0  0  0  0  0
    4.7761   -3.5898    1.1426 C   0  0  0  0  0  0  0  0  0  0  0  0
    5.2650   -4.8689    0.8978 C   0  0  0  0  0  0  0  0  0  0  0  0
    7.0723   -5.0783    0.3253 Br  0  0  0  0  0  0  0  0  0  0  0  0
    4.4707   -6.0233    1.0575 C   0  0  0  0  0  0  0  0  0  0  0  0
    3.1477   -5.9109    1.4732 C   0  0  0  0  0  0  0  0  0  0  0  0
    0.0000    0.0000    0.0000 S   0  0  0  0  0  0  0  0  0  0  0  0
    2.8810    1.2638    6.1426 H   0  0  0  0  0  0  0  0  0  0  0  0
    1.4786    2.0691    5.3900 H   0  0  0  0  0  0  0  0  0  0  0  0
    2.8605    1.5631    4.3843 H   0  0  0  0  0  0  0  0  0  0  0  0
    0.9440   -0.3533    5.8851 H   0  0  0  0  0  0  0  0  0  0  0  0
    2.3485   -0.8610    4.9281 H   0  0  0  0  0  0  0  0  0  0  0  0
    4.0887   -0.8163    1.5150 H   0  0  0  0  0  0  0  0  0  0  0  0
    0.4344   -2.3717    2.5621 H   0  0  0  0  0  0  0  0  0  0  0  0
    0.6111   -4.8245    2.3269 H   0  0  0  0  0  0  0  0  0  0  0  0
    5.4203   -2.7204    1.0076 H   0  0  0  0  0  0  0  0  0  0  0  0
    4.9007   -7.0040    0.8524 H   0  0  0  0  0  0  0  0  0  0  0  0
    2.5262   -6.7999    1.5985 H   0  0  0  0  0  0  0  0  0  0  0  0
    1.4166    1.7839   -0.4186 Au  0  0  0  0  0  0  0  0  0  0  0  0
  1 22  1  0  0  0  0
  1 21  1  0  0  0  0
  2  1  1  0  0  0  0
  2 24  1  0  0  0  0
  3  2  1  0  0  0  0
  4  3  2  0  0  0  0
  5  4  1  0  0  0  0
  6  5  2  0  0  0  0
  6  7  1  0  0  0  0
  7  3  1  0  0  0  0
  8  7  1  0  0  0  0
  9 10  1  0  0  0  0
  9  8  1  0  0  0  0
 10 11  2  0  0  0  0
 11 27  1  0  0  0  0
 12 11  1  0  0  0  0
 12 28  1  0  0  0  0
 13 12  1  0  0  0  0
 14 13  1  0  0  0  0
 14 10  1  0  0  0  0
 15 14  2  0  0  0  0
 16 18  2  0  0  0  0
 16 15  1  0  0  0  0
 17 16  1  0  0  0  0
 18 19  1  0  0  0  0
 19 31  1  0  0  0  0
 19 13  2  0  0  0  0
 20  6  1  0  0  0  0
 23  1  1  0  0  0  0
 25  2  1  0  0  0  0
 26  9  1  0  0  0  0
 29 15  1  0  0  0  0
 30 18  1  0  0  0  0
 32 20  1  0  0  0  0
M  RAD  2   8   2   9   2
M  END
