261994718.xyz
 OpenBabel07262113453D
SCC(=C)Cn1cccc(c1=O)Br
 23 23  0  0  0  0  0  0  0  0999 V2000
    0.0000    0.0000    0.0000 S   0  0  0  0  0  0  0  0  0  0  0  0
    0.0000   -0.0000    1.8617 C   0  0  0  0  0  0  0  0  0  0  0  0
    1.4207    0.0000    2.3530 C   0  0  0  0  0  0  0  0  0  0  0  0
    1.9436    1.0492    2.9982 C   0  0  0  0  0  0  0  0  0  0  0  0
    2.2428   -1.2425    2.0761 C   0  0  0  0  0  0  0  0  0  0  0  0
    1.5535   -2.4713    2.4850 N   0  0  0  0  0  0  0  0  0  0  0  0
    0.8728   -3.2121    1.5628 C   0  0  0  0  0  0  0  0  0  0  0  0
    0.1615   -4.3228    1.9218 C   0  0  0  0  0  0  0  0  0  0  0  0
    0.1416   -4.7043    3.2919 C   0  0  0  0  0  0  0  0  0  0  0  0
    0.8268   -3.9691    4.2210 C   0  0  0  0  0  0  0  0  0  0  0  0
    1.5976   -2.7756    3.8707 C   0  0  0  0  0  0  0  0  0  0  0  0
    2.2312   -2.0705    4.6363 O   0  0  0  0  0  0  0  0  0  0  0  0
    0.8250   -4.4451    6.0507 Br  0  0  0  0  0  0  0  0  0  0  0  0
   -1.8720   -1.2065   -0.5449 Au  0  0  0  0  0  0  0  0  0  0  0  0
   -0.5433    0.8844    2.2182 H   0  0  0  0  0  0  0  0  0  0  0  0
   -0.5273   -0.8967    2.2136 H   0  0  0  0  0  0  0  0  0  0  0  0
    1.3664    1.9638    3.1581 H   0  0  0  0  0  0  0  0  0  0  0  0
    2.9591    1.0179    3.4009 H   0  0  0  0  0  0  0  0  0  0  0  0
    3.1926   -1.1877    2.6200 H   0  0  0  0  0  0  0  0  0  0  0  0
    2.4429   -1.3259    0.9986 H   0  0  0  0  0  0  0  0  0  0  0  0
    0.9193   -2.8449    0.5371 H   0  0  0  0  0  0  0  0  0  0  0  0
   -0.3705   -4.9001    1.1666 H   0  0  0  0  0  0  0  0  0  0  0  0
   -0.4195   -5.5859    3.6084 H   0  0  0  0  0  0  0  0  0  0  0  0
  1  2  1  0  0  0  0
  2 16  1  0  0  0  0
  2 15  1  0  0  0  0
  2  3  1  0  0  0  0
  3  4  2  0  0  0  0
  4 17  1  0  0  0  0
  4 18  1  0  0  0  0
  5  3  1  0  0  0  0
  5  6  1  0  0  0  0
  5 19  1  0  0  0  0
  6 11  1  0  0  0  0
  7  8  2  0  0  0  0
  7  6  1  0  0  0  0
  8  9  1  0  0  0  0
  9 23  1  0  0  0  0
  9 10  2  0  0  0  0
 10 13  1  0  0  0  0
 11 10  1  0  0  0  0
 11 12  2  0  0  0  0
 14  1  1  0  0  0  0
 20  5  1  0  0  0  0
 21  7  1  0  0  0  0
 22  8  1  0  0  0  0
M  END
