262183525.xyz
 OpenBabel07262113453D
COCc1nc(nc(c1Br)S)C1CC1
 25 26  0  0  1  0  0  0  0  0999 V2000
   -3.3381    0.0005    6.8308 C   0  0  0  0  0  0  0  0  0  0  0  0
   -2.1839    0.0007    6.0366 O   0  0  0  0  0  0  0  0  0  0  0  0
   -2.4624   -0.0002    4.6734 C   0  0  0  0  0  0  0  0  0  0  0  0
   -1.1890   -0.0000    3.8605 C   0  0  0  0  0  0  0  0  0  0  0  0
   -0.0258   -0.0001    4.5039 N   0  0  0  0  0  0  0  0  0  0  0  0
    1.1005   -0.0002    3.7807 C   0  0  0  0  0  0  0  0  0  0  0  0
    1.1532   -0.0000    2.4450 N   0  0  0  0  0  0  0  0  0  0  0  0
   -0.0000    0.0000    1.7640 C   0  0  0  0  0  0  0  0  0  0  0  0
   -1.2258   -0.0001    2.4578 C   0  0  1  0  0  0  0  0  0  0  0  0
   -2.8784   -0.0008    1.5145 Br  0  0  0  0  0  0  0  0  0  0  0  0
    0.0000    0.0000    0.0000 S   0  0  0  0  0  0  0  0  0  0  0  0
    2.3865   -0.0007    4.5165 C   0  0  0  0  0  0  0  0  0  0  0  0
    2.4756    0.7437    5.8374 C   0  0  0  0  0  0  0  0  0  0  0  0
    2.4756   -0.7483    5.8357 C   0  0  0  0  0  0  0  0  0  0  0  0
   -3.0193    0.0012    7.8829 H   0  0  0  0  0  0  0  0  0  0  0  0
   -3.9677    0.8960    6.6505 H   0  0  0  0  0  0  0  0  0  0  0  0
   -3.9667   -0.8958    6.6513 H   0  0  0  0  0  0  0  0  0  0  0  0
   -3.0691    0.8832    4.3762 H   0  0  0  0  0  0  0  0  0  0  0  0
   -3.0681   -0.8846    4.3773 H   0  0  0  0  0  0  0  0  0  0  0  0
    2.2861   -0.0027   -0.3620 Au  0  0  0  0  0  0  0  0  0  0  0  0
    3.2628   -0.0000    3.8664 H   0  0  0  0  0  0  0  0  0  0  0  0
    3.4075    1.2755    6.0467 H   0  0  0  0  0  0  0  0  0  0  0  0
    1.5598    1.2412    6.1658 H   0  0  0  0  0  0  0  0  0  0  0  0
    1.5597   -1.2466    6.1628 H   0  0  0  0  0  0  0  0  0  0  0  0
    3.4074   -1.2808    6.0437 H   0  0  0  0  0  0  0  0  0  0  0  0
  1 15  1  0  0  0  0
  2  1  1  0  0  0  0
  3  2  1  0  0  0  0
  4  5  2  0  0  0  0
  4  3  1  0  0  0  0
  6  5  2  0  0  0  0
  6 12  1  0  0  0  0
  7  6  2  0  0  0  0
  8  7  2  0  0  0  0
  8  9  1  0  0  0  0
  9 10  1  1  0  0  0
  9  4  1  0  0  0  0
 11  8  1  0  0  0  0
 12 14  1  0  0  0  0
 12 13  1  0  0  0  0
 13 22  1  0  0  0  0
 13 23  1  0  0  0  0
 14 13  1  0  0  0  0
 14 25  1  0  0  0  0
 14 24  1  0  0  0  0
 16  1  1  0  0  0  0
 17  1  1  0  0  0  0
 18  3  1  0  0  0  0
 19  3  1  0  0  0  0
 20 11  1  0  0  0  0
 21 12  1  0  0  0  0
M  RAD  1   9   2
M  END
