262447472.xyz
 OpenBabel07262113453D
CCOC(=O)c1cc(S)cc(c1I)C
 25 25  0  0  0  0  0  0  0  0999 V2000
    3.6736    1.7783    7.4884 C   0  0  0  0  0  0  0  0  0  0  0  0
    3.8708    0.8744    6.2916 C   0  0  0  0  0  0  0  0  0  0  0  0
    2.6149    0.7880    5.5973 O   0  0  0  0  0  0  0  0  0  0  0  0
    2.5736    0.0016    4.5180 C   0  0  0  0  0  0  0  0  0  0  0  0
    3.5404   -0.5507    4.0500 O   0  0  0  0  0  0  0  0  0  0  0  0
    1.2072   -0.0572    3.8950 C   0  0  0  0  0  0  0  0  0  0  0  0
    1.2019    0.0000    2.4956 C   0  0  0  0  0  0  0  0  0  0  0  0
   -0.0000    0.0000    1.7824 C   0  0  0  0  0  0  0  0  0  0  0  0
    0.0000    0.0000    0.0000 S   0  0  0  0  0  0  0  0  0  0  0  0
   -1.2064   -0.0910    2.4891 C   0  0  0  0  0  0  0  0  0  0  0  0
   -1.2444   -0.1958    3.8859 C   0  0  0  0  0  0  0  0  0  0  0  0
   -0.0169   -0.1761    4.5829 C   0  0  0  0  0  0  0  0  0  0  0  0
   -0.0757   -0.4683    6.6975 I   0  0  0  0  0  0  0  0  0  0  0  0
   -2.5774   -0.3314    4.5734 C   0  0  0  0  0  0  0  0  0  0  0  0
    2.9111    1.3678    8.1672 H   0  0  0  0  0  0  0  0  0  0  0  0
    3.3487    2.7812    7.1723 H   0  0  0  0  0  0  0  0  0  0  0  0
    4.6188    1.8783    8.0438 H   0  0  0  0  0  0  0  0  0  0  0  0
    4.6339    1.2600    5.5967 H   0  0  0  0  0  0  0  0  0  0  0  0
    4.1831   -0.1411    6.5830 H   0  0  0  0  0  0  0  0  0  0  0  0
    2.1555    0.0531    1.9695 H   0  0  0  0  0  0  0  0  0  0  0  0
    0.0222    2.2466   -0.5075 Au  0  0  0  0  0  0  0  0  0  0  0  0
   -2.1441   -0.0925    1.9300 H   0  0  0  0  0  0  0  0  0  0  0  0
   -2.6541   -1.2908    5.1093 H   0  0  0  0  0  0  0  0  0  0  0  0
   -2.7249    0.4623    5.3224 H   0  0  0  0  0  0  0  0  0  0  0  0
   -3.3961   -0.2770    3.8427 H   0  0  0  0  0  0  0  0  0  0  0  0
  1 17  1  0  0  0  0
  1 15  1  0  0  0  0
  2 19  1  0  0  0  0
  2  1  1  0  0  0  0
  3  2  1  0  0  0  0
  4  3  1  0  0  0  0
  5  4  2  0  0  0  0
  6  4  1  0  0  0  0
  6 12  1  0  0  0  0
  7  6  2  0  0  0  0
  8 10  2  0  0  0  0
  8  7  1  0  0  0  0
  9  8  1  0  0  0  0
 10 11  1  0  0  0  0
 11 14  1  0  0  0  0
 11 12  2  0  0  0  0
 12 13  1  0  0  0  0
 14 23  1  0  0  0  0
 14 24  1  0  0  0  0
 16  1  1  0  0  0  0
 18  2  1  0  0  0  0
 20  7  1  0  0  0  0
 21  9  1  0  0  0  0
 22 10  1  0  0  0  0
 25 14  1  0  0  0  0
M  END
