262893550.xyz
 OpenBabel07262113453D
SCCC(=O)N1CC2C(C1)CC=CC2
 31 32  0  0  1  0  0  0  0  0999 V2000
    0.0000    0.0000    0.0000 S   0  0  0  0  0  0  0  0  0  0  0  0
   -0.0000   -0.0000    1.8454 C   0  0  0  0  0  0  0  0  0  0  0  0
    1.3740   -0.0000    2.5199 C   0  0  0  0  0  0  0  0  0  0  0  0
    1.9391   -1.4165    2.6180 C   0  0  0  0  0  0  0  0  0  0  0  0
    1.2450   -2.3344    3.0330 O   0  0  0  0  0  0  0  0  0  0  0  0
    3.2395   -1.6236    2.2454 N   0  0  0  0  0  0  0  0  0  0  0  0
    4.1508   -0.6607    1.6198 C   0  0  0  0  0  0  0  0  0  0  0  0
    5.4010   -1.5012    1.3054 C   0  0  1  0  0  0  0  0  0  0  0  0
    4.8234   -2.9179    1.0923 C   0  0  1  0  0  0  0  0  0  0  0  0
    3.7722   -2.9892    2.2040 C   0  0  0  0  0  0  0  0  0  0  0  0
    4.2165   -3.1199   -0.3064 C   0  0  0  0  0  0  0  0  0  0  0  0
    4.9085   -2.3825   -1.4111 C   0  0  0  0  0  0  0  0  0  0  0  0
    5.8132   -1.4192   -1.2005 C   0  0  0  0  0  0  0  0  0  0  0  0
    6.2667   -0.9712    0.1600 C   0  0  0  0  0  0  0  0  0  0  0  0
    1.5333   -1.6521   -0.4774 Au  0  0  0  0  0  0  0  0  0  0  0  0
   -0.5414    0.9272    2.0918 H   0  0  0  0  0  0  0  0  0  0  0  0
   -0.5837   -0.8501    2.2244 H   0  0  0  0  0  0  0  0  0  0  0  0
    2.0492    0.7057    2.0194 H   0  0  0  0  0  0  0  0  0  0  0  0
    1.2510    0.3409    3.5633 H   0  0  0  0  0  0  0  0  0  0  0  0
    3.7143   -0.2400    0.6971 H   0  0  0  0  0  0  0  0  0  0  0  0
    4.3890    0.1786    2.2925 H   0  0  0  0  0  0  0  0  0  0  0  0
    6.0131   -1.5378    2.2211 H   0  0  0  0  0  0  0  0  0  0  0  0
    5.6071   -3.6783    1.2332 H   0  0  0  0  0  0  0  0  0  0  0  0
    2.9539   -3.6974    2.0139 H   0  0  0  0  0  0  0  0  0  0  0  0
    4.2308   -3.2663    3.1695 H   0  0  0  0  0  0  0  0  0  0  0  0
    3.1233   -2.8065   -0.2793 H   0  0  0  0  0  0  0  0  0  0  0  0
    4.1396   -4.1947   -0.5364 H   0  0  0  0  0  0  0  0  0  0  0  0
    4.6345   -2.6534   -2.4354 H   0  0  0  0  0  0  0  0  0  0  0  0
    6.2785   -0.9300   -2.0623 H   0  0  0  0  0  0  0  0  0  0  0  0
    6.3035    0.1320    0.1958 H   0  0  0  0  0  0  0  0  0  0  0  0
    7.3145   -1.2935    0.3039 H   0  0  0  0  0  0  0  0  0  0  0  0
  1  2  1  0  0  0  0
  2 16  1  0  0  0  0
  2 17  1  0  0  0  0
  2  3  1  0  0  0  0
  3  4  1  0  0  0  0
  3 19  1  0  0  0  0
  4  5  2  0  0  0  0
  6  4  1  0  0  0  0
  7  6  1  0  0  0  0
  7 21  1  0  0  0  0
  8  9  1  6  0  0  0
  8  7  1  0  0  0  0
  8 22  1  0  0  0  0
  9 23  1  1  0  0  0
  9 10  1  0  0  0  0
 10  6  1  0  0  0  0
 10 25  1  0  0  0  0
 11 26  1  0  0  0  0
 11  9  1  0  0  0  0
 12 13  2  0  0  0  0
 12 11  1  0  0  0  0
 13 14  1  0  0  0  0
 14 30  1  0  0  0  0
 14 31  1  0  0  0  0
 14  8  1  0  0  0  0
 15  1  1  0  0  0  0
 18  3  1  0  0  0  0
 20  7  1  0  0  0  0
 24 10  1  0  0  0  0
 27 11  1  0  0  0  0
 28 12  1  0  0  0  0
 29 13  1  0  0  0  0
M  END
