263181000.xyz
 OpenBabel07262113453D
SCC1(CCC1)CN1CCCCCC1
 37 38  0  0  0  0  0  0  0  0999 V2000
    0.0000    0.0000    0.0000 S   0  0  0  0  0  0  0  0  0  0  0  0
   -0.0000   -0.0000    1.8477 C   0  0  0  0  0  0  0  0  0  0  0  0
    1.3569    0.0000    2.5857 C   0  0  0  0  0  0  0  0  0  0  0  0
    1.4826    1.0530    3.7393 C   0  0  0  0  0  0  0  0  0  0  0  0
    2.8918    1.4276    3.2266 C   0  0  0  0  0  0  0  0  0  0  0  0
    2.5623    0.7071    1.8979 C   0  0  0  0  0  0  0  0  0  0  0  0
    1.7373   -1.3720    3.1789 C   0  0  0  0  0  0  0  0  0  0  0  0
    1.9674   -2.4901    2.2519 N   0  0  0  0  0  0  0  0  0  0  0  0
    0.9012   -3.4955    2.2575 C   0  0  0  0  0  0  0  0  0  0  0  0
    0.8764   -4.4963    3.4249 C   0  0  0  0  0  0  0  0  0  0  0  0
    1.9794   -5.5597    3.3405 C   0  0  0  0  0  0  0  0  0  0  0  0
    3.3717   -5.1409    3.8469 C   0  0  0  0  0  0  0  0  0  0  0  0
    3.7704   -3.6722    3.6234 C   0  0  0  0  0  0  0  0  0  0  0  0
    3.3321   -3.0306    2.2936 C   0  0  0  0  0  0  0  0  0  0  0  0
    1.5463   -1.6753   -0.3517 Au  0  0  0  0  0  0  0  0  0  0  0  0
   -0.6365   -0.8208    2.2129 H   0  0  0  0  0  0  0  0  0  0  0  0
   -0.5367    0.9348    2.0777 H   0  0  0  0  0  0  0  0  0  0  0  0
    0.7624    1.8753    3.6145 H   0  0  0  0  0  0  0  0  0  0  0  0
    1.3968    0.6711    4.7701 H   0  0  0  0  0  0  0  0  0  0  0  0
    3.6951    0.9351    3.7960 H   0  0  0  0  0  0  0  0  0  0  0  0
    3.1288    2.4997    3.1632 H   0  0  0  0  0  0  0  0  0  0  0  0
    3.3317    0.0557    1.4564 H   0  0  0  0  0  0  0  0  0  0  0  0
    2.2174    1.3955    1.1144 H   0  0  0  0  0  0  0  0  0  0  0  0
    2.6437   -1.2185    3.7850 H   0  0  0  0  0  0  0  0  0  0  0  0
    0.9497   -1.6465    3.9045 H   0  0  0  0  0  0  0  0  0  0  0  0
    0.9636   -4.0727    1.3181 H   0  0  0  0  0  0  0  0  0  0  0  0
   -0.0545   -2.9549    2.2077 H   0  0  0  0  0  0  0  0  0  0  0  0
    0.9108   -3.9656    4.3928 H   0  0  0  0  0  0  0  0  0  0  0  0
   -0.1041   -5.0011    3.3933 H   0  0  0  0  0  0  0  0  0  0  0  0
    1.6679   -6.4594    3.8961 H   0  0  0  0  0  0  0  0  0  0  0  0
    2.0525   -5.8801    2.2862 H   0  0  0  0  0  0  0  0  0  0  0  0
    4.1201   -5.7975    3.3715 H   0  0  0  0  0  0  0  0  0  0  0  0
    3.4444   -5.3481    4.9280 H   0  0  0  0  0  0  0  0  0  0  0  0
    3.3783   -3.0533    4.4467 H   0  0  0  0  0  0  0  0  0  0  0  0
    4.8677   -3.5946    3.7038 H   0  0  0  0  0  0  0  0  0  0  0  0
    4.0149   -2.2006    2.0558 H   0  0  0  0  0  0  0  0  0  0  0  0
    3.4378   -3.7593    1.4707 H   0  0  0  0  0  0  0  0  0  0  0  0
  1  2  1  0  0  0  0
  2 17  1  0  0  0  0
  2 16  1  0  0  0  0
  2  3  1  0  0  0  0
  3  7  1  0  0  0  0
  3  4  1  0  0  0  0
  4 19  1  0  0  0  0
  5  4  1  0  0  0  0
  5 20  1  0  0  0  0
  6  3  1  0  0  0  0
  6  5  1  0  0  0  0
  7 24  1  0  0  0  0
  7 25  1  0  0  0  0
  8  9  1  0  0  0  0
  8 14  1  0  0  0  0
  8  7  1  0  0  0  0
  9 10  1  0  0  0  0
 10 28  1  0  0  0  0
 11 10  1  0  0  0  0
 11 12  1  0  0  0  0
 11 30  1  0  0  0  0
 12 33  1  0  0  0  0
 13 35  1  0  0  0  0
 13 12  1  0  0  0  0
 13 34  1  0  0  0  0
 14 13  1  0  0  0  0
 15  1  1  0  0  0  0
 18  4  1  0  0  0  0
 21  5  1  0  0  0  0
 22  6  1  0  0  0  0
 23  6  1  0  0  0  0
 26  9  1  0  0  0  0
 27  9  1  0  0  0  0
 29 10  1  0  0  0  0
 31 11  1  0  0  0  0
 32 12  1  0  0  0  0
 36 14  1  0  0  0  0
 37 14  1  0  0  0  0
M  END
