263404874.xyz
 OpenBabel07262113453D
OCC1CSCCN1C(=O)C(S)C
 28 28  0  0  1  0  0  0  0  0999 V2000
   -1.5886    3.8529    1.2446 O   0  0  0  0  0  0  0  0  0  0  0  0
   -2.8890    3.4887    1.7093 C   0  0  0  0  0  0  0  0  0  0  0  0
   -2.8828    2.3759    2.7713 C   0  0  1  0  0  0  0  0  0  0  0  0
   -4.3203    2.0188    3.1751 C   0  0  0  0  0  0  0  0  0  0  0  0
   -4.4081    0.4771    4.1476 S   0  0  0  0  0  0  0  0  0  0  0  0
   -3.6776   -0.6729    2.8997 C   0  0  0  0  0  0  0  0  0  0  0  0
   -2.9565    0.0877    1.7866 C   0  0  0  0  0  0  0  0  0  0  0  0
   -2.1570    1.1806    2.3177 N   0  0  0  0  0  0  0  0  0  0  0  0
   -0.7955    1.1892    2.4269 C   0  0  0  0  0  0  0  0  0  0  0  0
   -0.2148    2.1729    2.8973 O   0  0  0  0  0  0  0  0  0  0  0  0
    0.0000   -0.0000    1.8894 C   0  0  1  0  0  0  0  0  0  0  0  0
    0.0000    0.0000    0.0000 S   0  0  0  0  0  0  0  0  0  0  0  0
    1.4213    0.0000    2.4322 C   0  0  0  0  0  0  0  0  0  0  0  0
   -0.9501    3.6267    1.9578 H   0  0  0  0  0  0  0  0  0  0  0  0
   -3.3919    4.3761    2.1361 H   0  0  0  0  0  0  0  0  0  0  0  0
   -3.4708    3.1680    0.8302 H   0  0  0  0  0  0  0  0  0  0  0  0
   -2.3503    2.7400    3.6621 H   0  0  0  0  0  0  0  0  0  0  0  0
   -4.7309    2.8052    3.8238 H   0  0  0  0  0  0  0  0  0  0  0  0
   -4.9825    1.9507    2.2974 H   0  0  0  0  0  0  0  0  0  0  0  0
   -4.4633   -1.3149    2.4722 H   0  0  0  0  0  0  0  0  0  0  0  0
   -2.9707   -1.3127    3.4486 H   0  0  0  0  0  0  0  0  0  0  0  0
   -3.6855    0.5055    1.0747 H   0  0  0  0  0  0  0  0  0  0  0  0
   -2.3240   -0.5771    1.1867 H   0  0  0  0  0  0  0  0  0  0  0  0
   -0.5052   -0.9397    2.1618 H   0  0  0  0  0  0  0  0  0  0  0  0
   -0.6444    2.2071   -0.2861 Au  0  0  0  0  0  0  0  0  0  0  0  0
    1.9279    0.9391    2.1749 H   0  0  0  0  0  0  0  0  0  0  0  0
    1.9867   -0.8388    2.0027 H   0  0  0  0  0  0  0  0  0  0  0  0
    1.4180   -0.0965    3.5305 H   0  0  0  0  0  0  0  0  0  0  0  0
  1  2  1  0  0  0  0
  1 14  1  0  0  0  0
  2 15  1  0  0  0  0
  2  3  1  0  0  0  0
  3  4  1  0  0  0  0
  3 17  1  1  0  0  0
  4 18  1  0  0  0  0
  4  5  1  0  0  0  0
  6 21  1  0  0  0  0
  6  5  1  0  0  0  0
  7  8  1  0  0  0  0
  7  6  1  0  0  0  0
  8  9  1  0  0  0  0
  8  3  1  0  0  0  0
  9 10  2  0  0  0  0
 11 24  1  1  0  0  0
 11  9  1  0  0  0  0
 11 13  1  0  0  0  0
 12 11  1  0  0  0  0
 13 28  1  0  0  0  0
 16  2  1  0  0  0  0
 19  4  1  0  0  0  0
 20  6  1  0  0  0  0
 22  7  1  0  0  0  0
 23  7  1  0  0  0  0
 25 12  1  0  0  0  0
 26 13  1  0  0  0  0
 27 13  1  0  0  0  0
M  END
