263584190.xyz
 OpenBabel07262113453D
CC1C(O)CCCN1C(=O)C(CC)S
 33 33  0  0  1  0  0  0  0  0999 V2000
   -2.6604    3.5522    2.7358 C   0  0  0  0  0  0  0  0  0  0  0  0
   -3.1158    2.0990    2.8255 C   0  0  2  0  0  0  0  0  0  0  0  0
   -3.4681    1.6301    4.2558 C   0  0  1  0  0  0  0  0  0  0  0  0
   -4.3807    2.5013    4.8929 O   0  0  0  0  0  0  0  0  0  0  0  0
   -4.1268    0.2504    4.2037 C   0  0  0  0  0  0  0  0  0  0  0  0
   -3.3242   -0.7660    3.3827 C   0  0  0  0  0  0  0  0  0  0  0  0
   -2.9197   -0.1771    2.0274 C   0  0  0  0  0  0  0  0  0  0  0  0
   -2.2151    1.0867    2.2405 N   0  0  0  0  0  0  0  0  0  0  0  0
   -0.8554    1.1666    2.3792 C   0  0  0  0  0  0  0  0  0  0  0  0
   -0.2906    2.1418    2.8586 O   0  0  0  0  0  0  0  0  0  0  0  0
    0.0000    0.0000    1.8493 C   0  0  2  0  0  0  0  0  0  0  0  0
    1.4026    0.0000    2.4562 C   0  0  0  0  0  0  0  0  0  0  0  0
    1.4021   -0.2985    3.9558 C   0  0  0  0  0  0  0  0  0  0  0  0
    0.0000    0.0000    0.0000 S   0  0  0  0  0  0  0  0  0  0  0  0
   -1.8449    3.7809    3.4310 H   0  0  0  0  0  0  0  0  0  0  0  0
   -2.3051    3.7816    1.7206 H   0  0  0  0  0  0  0  0  0  0  0  0
   -3.5275    4.1985    2.9432 H   0  0  0  0  0  0  0  0  0  0  0  0
   -4.0465    2.0254    2.2370 H   0  0  0  0  0  0  0  0  0  0  0  0
   -2.5167    1.5684    4.8231 H   0  0  0  0  0  0  0  0  0  0  0  0
   -3.9246    3.3290    5.0887 H   0  0  0  0  0  0  0  0  0  0  0  0
   -5.1250    0.3904    3.7530 H   0  0  0  0  0  0  0  0  0  0  0  0
   -4.2937   -0.1114    5.2302 H   0  0  0  0  0  0  0  0  0  0  0  0
   -3.9099   -1.6889    3.2399 H   0  0  0  0  0  0  0  0  0  0  0  0
   -2.4062   -1.0496    3.9274 H   0  0  0  0  0  0  0  0  0  0  0  0
   -2.3111   -0.8649    1.4330 H   0  0  0  0  0  0  0  0  0  0  0  0
   -3.8163    0.0361    1.4223 H   0  0  0  0  0  0  0  0  0  0  0  0
   -0.4776   -0.9654    2.0793 H   0  0  0  0  0  0  0  0  0  0  0  0
    1.8631    0.9811    2.2663 H   0  0  0  0  0  0  0  0  0  0  0  0
    1.9992   -0.7508    1.9155 H   0  0  0  0  0  0  0  0  0  0  0  0
    0.9336   -1.2740    4.1727 H   0  0  0  0  0  0  0  0  0  0  0  0
    0.8568    0.4784    4.5114 H   0  0  0  0  0  0  0  0  0  0  0  0
    2.4304   -0.3322    4.3483 H   0  0  0  0  0  0  0  0  0  0  0  0
    0.6688    2.1582   -0.4330 Au  0  0  0  0  0  0  0  0  0  0  0  0
  1  2  1  0  0  0  0
  1 17  1  0  0  0  0
  1 15  1  0  0  0  0
  2  3  1  1  0  0  0
  3 19  1  1  0  0  0
  3  4  1  0  0  0  0
  4 20  1  0  0  0  0
  5  3  1  0  0  0  0
  5 22  1  0  0  0  0
  6 24  1  0  0  0  0
  6  5  1  0  0  0  0
  7  8  1  0  0  0  0
  7  6  1  0  0  0  0
  8  9  1  0  0  0  0
  8  2  1  0  0  0  0
  9 10  2  0  0  0  0
 11 27  1  1  0  0  0
 11  9  1  0  0  0  0
 11 12  1  0  0  0  0
 12 13  1  0  0  0  0
 13 30  1  0  0  0  0
 13 32  1  0  0  0  0
 13 31  1  0  0  0  0
 14 11  1  0  0  0  0
 16  1  1  0  0  0  0
 18  2  1  0  0  0  0
 21  5  1  0  0  0  0
 23  6  1  0  0  0  0
 25  7  1  0  0  0  0
 26  7  1  0  0  0  0
 28 12  1  0  0  0  0
 29 12  1  0  0  0  0
 33 14  1  0  0  0  0
M  END
