263672017.xyz
 OpenBabel07262113453D
CC(CS)CN1CC(C)CCC1=O
 32 32  0  0  1  0  0  0  0  0999 V2000
    2.1641   -1.2820    2.2164 C   0  0  0  0  0  0  0  0  0  0  0  0
    1.3816   -0.0000    2.4952 C   0  0  1  0  0  0  0  0  0  0  0  0
    0.0000    0.0000    1.8339 C   0  0  0  0  0  0  0  0  0  0  0  0
    0.0000    0.0000    0.0000 S   0  0  0  0  0  0  0  0  0  0  0  0
    1.2555    0.2378    4.0100 C   0  0  0  0  0  0  0  0  0  0  0  0
    0.6248    1.5065    4.3491 N   0  0  0  0  0  0  0  0  0  0  0  0
    1.4744    2.6895    4.2715 C   0  0  0  0  0  0  0  0  0  0  0  0
    0.6977    4.0026    4.2349 C   0  0  2  0  0  0  0  0  0  0  0  0
    1.6462    5.1977    4.3027 C   0  0  0  0  0  0  0  0  0  0  0  0
   -0.3318    3.9912    5.3647 C   0  0  0  0  0  0  0  0  0  0  0  0
   -1.3022    2.8313    5.1703 C   0  0  0  0  0  0  0  0  0  0  0  0
   -0.6636    1.4907    4.8294 C   0  0  0  0  0  0  0  0  0  0  0  0
   -1.3042    0.4549    4.9319 O   0  0  0  0  0  0  0  0  0  0  0  0
    1.6613   -2.1521    2.6717 H   0  0  0  0  0  0  0  0  0  0  0  0
    3.1833   -1.2275    2.6308 H   0  0  0  0  0  0  0  0  0  0  0  0
    2.2405   -1.4610    1.1342 H   0  0  0  0  0  0  0  0  0  0  0  0
    1.9443    0.8477    2.0616 H   0  0  0  0  0  0  0  0  0  0  0  0
   -0.6092    0.8383    2.1913 H   0  0  0  0  0  0  0  0  0  0  0  0
   -0.5506   -0.9216    2.0929 H   0  0  0  0  0  0  0  0  0  0  0  0
    0.9379    2.0382   -0.4884 Au  0  0  0  0  0  0  0  0  0  0  0  0
    2.2615    0.2113    4.4644 H   0  0  0  0  0  0  0  0  0  0  0  0
    0.6538   -0.5594    4.4666 H   0  0  0  0  0  0  0  0  0  0  0  0
    2.0992    2.6069    3.3671 H   0  0  0  0  0  0  0  0  0  0  0  0
    2.1732    2.7033    5.1332 H   0  0  0  0  0  0  0  0  0  0  0  0
    0.1490    4.0406    3.2749 H   0  0  0  0  0  0  0  0  0  0  0  0
    2.3855    5.1747    3.4859 H   0  0  0  0  0  0  0  0  0  0  0  0
    2.1995    5.2086    5.2565 H   0  0  0  0  0  0  0  0  0  0  0  0
    1.0908    6.1453    4.2279 H   0  0  0  0  0  0  0  0  0  0  0  0
    0.1976    3.8913    6.3298 H   0  0  0  0  0  0  0  0  0  0  0  0
   -0.8790    4.9469    5.4047 H   0  0  0  0  0  0  0  0  0  0  0  0
   -1.9930    3.0506    4.3370 H   0  0  0  0  0  0  0  0  0  0  0  0
   -1.9381    2.6575    6.0503 H   0  0  0  0  0  0  0  0  0  0  0  0
  1  2  1  0  0  0  0
  1 15  1  0  0  0  0
  1 14  1  0  0  0  0
  2 17  1  6  0  0  0
  2  5  1  0  0  0  0
  3 19  1  0  0  0  0
  3 18  1  0  0  0  0
  3  2  1  0  0  0  0
  4  3  1  0  0  0  0
  5  6  1  0  0  0  0
  5 21  1  0  0  0  0
  5 22  1  0  0  0  0
  6 12  1  0  0  0  0
  7  6  1  0  0  0  0
  7 24  1  0  0  0  0
  8 25  1  6  0  0  0
  8  7  1  0  0  0  0
  8  9  1  0  0  0  0
  8 10  1  0  0  0  0
  9 27  1  0  0  0  0
 10 30  1  0  0  0  0
 10 29  1  0  0  0  0
 11 10  1  0  0  0  0
 11 32  1  0  0  0  0
 12 13  2  0  0  0  0
 12 11  1  0  0  0  0
 16  1  1  0  0  0  0
 20  4  1  0  0  0  0
 23  7  1  0  0  0  0
 26  9  1  0  0  0  0
 28  9  1  0  0  0  0
 31 11  1  0  0  0  0
M  END
