265539709.xyz
 OpenBabel07262113453D
CC1CCN(C1=O)CC(=C)CS
 27 27  0  0  1  0  0  0  0  0999 V2000
   -2.6827   -1.4593    6.5829 C   0  0  0  0  0  0  0  0  0  0  0  0
   -1.6969   -1.6803    5.4444 C   0  0  2  0  0  0  0  0  0  0  0  0
   -0.5299   -2.6422    5.7126 C   0  0  0  0  0  0  0  0  0  0  0  0
    0.5897   -2.1332    4.7897 C   0  0  0  0  0  0  0  0  0  0  0  0
    0.2984   -0.7131    4.6815 N   0  0  0  0  0  0  0  0  0  0  0  0
   -0.9952   -0.3916    5.0040 C   0  0  0  0  0  0  0  0  0  0  0  0
   -1.4931    0.7156    4.9175 O   0  0  0  0  0  0  0  0  0  0  0  0
    1.1975    0.2280    4.0462 C   0  0  0  0  0  0  0  0  0  0  0  0
    1.3263    0.0000    2.5524 C   0  0  0  0  0  0  0  0  0  0  0  0
    2.5151   -0.1872    1.9698 C   0  0  0  0  0  0  0  0  0  0  0  0
   -0.0000    0.0000    1.8277 C   0  0  0  0  0  0  0  0  0  0  0  0
    0.0000    0.0000    0.0000 S   0  0  0  0  0  0  0  0  0  0  0  0
   -2.1579   -1.1412    7.4984 H   0  0  0  0  0  0  0  0  0  0  0  0
   -3.3958   -0.6665    6.3134 H   0  0  0  0  0  0  0  0  0  0  0  0
   -3.2445   -2.3782    6.8109 H   0  0  0  0  0  0  0  0  0  0  0  0
   -2.2527   -2.0215    4.5494 H   0  0  0  0  0  0  0  0  0  0  0  0
   -0.7788   -3.6975    5.5318 H   0  0  0  0  0  0  0  0  0  0  0  0
   -0.2132   -2.5464    6.7642 H   0  0  0  0  0  0  0  0  0  0  0  0
    0.5638   -2.6225    3.7965 H   0  0  0  0  0  0  0  0  0  0  0  0
    1.5982   -2.2946    5.2043 H   0  0  0  0  0  0  0  0  0  0  0  0
    2.1893    0.1760    4.5243 H   0  0  0  0  0  0  0  0  0  0  0  0
    0.7711    1.2260    4.2374 H   0  0  0  0  0  0  0  0  0  0  0  0
    3.4339   -0.1956    2.5628 H   0  0  0  0  0  0  0  0  0  0  0  0
    2.5994   -0.3315    0.8910 H   0  0  0  0  0  0  0  0  0  0  0  0
   -0.5442   -0.9333    2.0672 H   0  0  0  0  0  0  0  0  0  0  0  0
   -0.6396    0.8079    2.2131 H   0  0  0  0  0  0  0  0  0  0  0  0
    0.8597    2.0721   -0.4928 Au  0  0  0  0  0  0  0  0  0  0  0  0
  1 15  1  0  0  0  0
  1 13  1  0  0  0  0
  2 16  1  6  0  0  0
  2  3  1  0  0  0  0
  2  1  1  0  0  0  0
  3 18  1  0  0  0  0
  4 20  1  0  0  0  0
  4  3  1  0  0  0  0
  5  4  1  0  0  0  0
  5  6  1  0  0  0  0
  6  2  1  0  0  0  0
  7  6  2  0  0  0  0
  8 22  1  0  0  0  0
  8 21  1  0  0  0  0
  8  5  1  0  0  0  0
  9  8  1  0  0  0  0
 10  9  2  0  0  0  0
 10 23  1  0  0  0  0
 11 25  1  0  0  0  0
 11 26  1  0  0  0  0
 11  9  1  0  0  0  0
 12 11  1  0  0  0  0
 14  1  1  0  0  0  0
 17  3  1  0  0  0  0
 19  4  1  0  0  0  0
 24 10  1  0  0  0  0
 27 12  1  0  0  0  0
M  END
