265525906.xyz
 OpenBabel07262113453D
SCC=CCN1C(=O)CCC1=O
 23 24  0  0  1  0  0  0  0  0999 V2000
    0.0000    0.0000    0.0000 S   0  0  0  0  0  0  0  0  0  0  0  0
    0.0000    0.0000    1.8746 C   0  0  0  0  0  0  0  0  0  0  0  0
    1.4080    0.0000    2.3763 C   0  0  0  0  0  0  0  0  0  0  0  0
    2.0321   -1.0587    2.9133 C   0  0  0  0  0  0  0  0  0  0  0  0
    3.5216   -1.1227    3.1035 C   0  0  0  0  0  0  0  0  0  0  0  0
    4.1210   -2.3556    2.5575 N   0  0  0  0  0  0  0  0  0  0  0  0
    4.3163   -2.6851    1.2371 C   0  0  1  0  0  0  0  0  0  0  0  0
    3.9791   -2.0406    0.2494 O   0  0  0  0  0  0  0  0  0  0  0  0
    5.0529   -4.0089    1.1579 C   0  0  0  0  0  0  0  0  0  0  0  0
    5.1983   -4.4756    2.6064 C   0  0  0  0  0  0  0  0  0  0  0  0
    4.6254   -3.3431    3.4403 C   0  0  0  0  0  0  0  0  0  0  0  0
    4.5851   -3.2531    4.6378 O   0  0  0  0  0  0  0  0  0  0  0  0
    2.0500   -1.0327   -0.2505 Au  0  0  0  0  0  0  0  0  0  0  0  0
   -0.5441    0.9111    2.1689 H   0  0  0  0  0  0  0  0  0  0  0  0
   -0.5533   -0.8765    2.2428 H   0  0  0  0  0  0  0  0  0  0  0  0
    1.9906    0.8977    2.1363 H   0  0  0  0  0  0  0  0  0  0  0  0
    1.4712   -1.9730    3.1389 H   0  0  0  0  0  0  0  0  0  0  0  0
    3.8039   -1.1395    4.1673 H   0  0  0  0  0  0  0  0  0  0  0  0
    4.0084   -0.2608    2.6239 H   0  0  0  0  0  0  0  0  0  0  0  0
    6.0141   -3.8360    0.6494 H   0  0  0  0  0  0  0  0  0  0  0  0
    4.4734   -4.6894    0.5168 H   0  0  0  0  0  0  0  0  0  0  0  0
    6.2355   -4.6583    2.9223 H   0  0  0  0  0  0  0  0  0  0  0  0
    4.6301   -5.3913    2.8303 H   0  0  0  0  0  0  0  0  0  0  0  0
  1  2  1  0  0  0  0
  2 14  1  0  0  0  0
  2 15  1  0  0  0  0
  2  3  1  0  0  0  0
  3  4  2  0  0  0  0
  4  5  1  0  0  0  0
  4 17  1  0  0  0  0
  5 18  1  0  0  0  0
  6  5  1  0  0  0  0
  6 11  1  0  0  0  0
  7  8  1  1  0  0  0
  7  6  1  0  0  0  0
  9  7  1  0  0  0  0
  9 10  1  0  0  0  0
 10 23  1  0  0  0  0
 10 22  1  0  0  0  0
 10 11  1  0  0  0  0
 11 12  2  0  0  0  0
 13  1  1  0  0  0  0
 13  8  1  0  0  0  0
 16  3  1  0  0  0  0
 19  5  1  0  0  0  0
 20  9  1  0  0  0  0
 21  9  1  0  0  0  0
M  RAD  1   7   2
M  END
