265511424.xyz
 OpenBabel07262113453D
CCCc1cnc(n1C(C)C)S
 28 28  0  0  1  0  0  0  0  0999 V2000
    1.9649   -0.0009    7.5592 C   0  0  0  0  0  0  0  0  0  0  0  0
    0.9853   -0.0010    6.3879 C   0  0  0  0  0  0  0  0  0  0  0  0
    1.6895   -0.0002    5.0284 C   0  0  0  0  0  0  0  0  0  0  0  0
    0.7380   -0.0001    3.8737 C   0  0  1  0  0  0  0  0  0  0  0  0
   -0.6375    0.0000    3.8292 C   0  0  0  0  0  0  0  0  0  0  0  0
   -1.0816    0.0000    2.5281 N   0  0  0  0  0  0  0  0  0  0  0  0
   -0.0000    0.0000    1.7731 C   0  0  0  0  0  0  0  0  0  0  0  0
    1.1471    0.0000    2.5369 N   0  0  0  0  0  0  0  0  0  0  0  0
    2.5445    0.0007    2.0806 C   0  0  0  0  0  0  0  0  0  0  0  0
    2.8809    1.2811    1.3132 C   0  0  0  0  0  0  0  0  0  0  0  0
    2.8814   -1.2777    1.3104 C   0  0  0  0  0  0  0  0  0  0  0  0
    0.0000    0.0000    0.0000 S   0  0  0  0  0  0  0  0  0  0  0  0
    2.6168    0.8882    7.5363 H   0  0  0  0  0  0  0  0  0  0  0  0
    1.4365   -0.0016    8.5252 H   0  0  0  0  0  0  0  0  0  0  0  0
    2.6179   -0.8893    7.5355 H   0  0  0  0  0  0  0  0  0  0  0  0
    0.3247    0.8802    6.4514 H   0  0  0  0  0  0  0  0  0  0  0  0
    0.3255   -0.8828    6.4508 H   0  0  0  0  0  0  0  0  0  0  0  0
    2.3570   -0.8812    4.9726 H   0  0  0  0  0  0  0  0  0  0  0  0
    2.3564    0.8811    4.9733 H   0  0  0  0  0  0  0  0  0  0  0  0
   -1.3331    0.0001    4.6656 H   0  0  0  0  0  0  0  0  0  0  0  0
    3.1426   -0.0002    3.0019 H   0  0  0  0  0  0  0  0  0  0  0  0
    2.3008    1.3537    0.3811 H   0  0  0  0  0  0  0  0  0  0  0  0
    2.6565    2.1684    1.9241 H   0  0  0  0  0  0  0  0  0  0  0  0
    3.9510    1.2959    1.0552 H   0  0  0  0  0  0  0  0  0  0  0  0
    2.6566   -2.1666    1.9189 H   0  0  0  0  0  0  0  0  0  0  0  0
    2.3020   -1.3481    0.3776 H   0  0  0  0  0  0  0  0  0  0  0  0
    3.9516   -1.2918    1.0530 H   0  0  0  0  0  0  0  0  0  0  0  0
   -2.3060    0.0091   -0.2223 Au  0  0  0  0  0  0  0  0  0  0  0  0
  1 14  1  0  0  0  0
  2 17  1  0  0  0  0
  2 16  1  0  0  0  0
  2  1  1  0  0  0  0
  3  2  1  0  0  0  0
  4  3  1  1  0  0  0
  5  4  1  0  0  0  0
  5 20  1  0  0  0  0
  6  5  2  0  0  0  0
  7  6  2  0  0  0  0
  7  8  1  0  0  0  0
  8  4  1  0  0  0  0
  9  8  1  0  0  0  0
  9 21  1  0  0  0  0
 10 23  1  0  0  0  0
 10  9  1  0  0  0  0
 11 25  1  0  0  0  0
 11  9  1  0  0  0  0
 12  7  1  0  0  0  0
 13  1  1  0  0  0  0
 15  1  1  0  0  0  0
 18  3  1  0  0  0  0
 19  3  1  0  0  0  0
 22 10  1  0  0  0  0
 24 10  1  0  0  0  0
 26 11  1  0  0  0  0
 27 11  1  0  0  0  0
 28 12  1  0  0  0  0
M  RAD  1   4   2
M  END
