266320899.xyz
 OpenBabel07262113453D
Sc1nccn1C1CC2CCC1CC2
 30 32  0  0  1  0  0  0  0  0999 V2000
    0.0000    0.0000    0.0000 S   0  0  0  0  0  0  0  0  0  0  0  0
   -0.0000    0.0000    1.7408 C   0  0  0  0  0  0  0  0  0  0  0  0
    1.0807   -0.0000    2.5132 N   0  0  0  0  0  0  0  0  0  0  0  0
    0.6278   -0.0086    3.7915 C   0  0  0  0  0  0  0  0  0  0  0  0
   -0.7605   -0.0017    3.8137 C   0  0  0  0  0  0  0  0  0  0  0  0
   -1.1612   -0.0037    2.5043 N   0  0  0  0  0  0  0  0  0  0  0  0
   -2.5222    0.0354    1.9623 C   0  0  1  0  0  0  0  0  0  0  0  0
   -2.9451   -1.3051    1.3072 C   0  0  0  0  0  0  0  0  0  0  0  0
   -4.4592   -1.5013    1.4967 C   0  0  2  0  0  0  0  0  0  0  0  0
   -5.1891   -0.1983    1.1235 C   0  0  0  0  0  0  0  0  0  0  0  0
   -4.8213    0.9038    2.1545 C   0  0  0  0  0  0  0  0  0  0  0  0
   -3.6030    0.4461    2.9804 C   0  0  1  0  0  0  0  0  0  0  0  0
   -4.0346   -0.7475    3.8572 C   0  0  0  0  0  0  0  0  0  0  0  0
   -4.7348   -1.8156    2.9761 C   0  0  0  0  0  0  0  0  0  0  0  0
   -0.3110    2.2415   -0.5136 Au  0  0  0  0  0  0  0  0  0  0  0  0
    1.3042   -0.0168    4.6458 H   0  0  0  0  0  0  0  0  0  0  0  0
   -1.4601    0.0103    4.6421 H   0  0  0  0  0  0  0  0  0  0  0  0
   -2.4911    0.8123    1.1827 H   0  0  0  0  0  0  0  0  0  0  0  0
   -2.6646   -1.3018    0.2450 H   0  0  0  0  0  0  0  0  0  0  0  0
   -2.3948   -2.1326    1.7832 H   0  0  0  0  0  0  0  0  0  0  0  0
   -4.8090   -2.3281    0.8594 H   0  0  0  0  0  0  0  0  0  0  0  0
   -4.8988    0.1074    0.1051 H   0  0  0  0  0  0  0  0  0  0  0  0
   -6.2773   -0.3653    1.1038 H   0  0  0  0  0  0  0  0  0  0  0  0
   -4.6018    1.8575    1.6494 H   0  0  0  0  0  0  0  0  0  0  0  0
   -5.6623    1.0955    2.8396 H   0  0  0  0  0  0  0  0  0  0  0  0
   -3.2377    1.2777    3.6019 H   0  0  0  0  0  0  0  0  0  0  0  0
   -3.1650   -1.1891    4.3648 H   0  0  0  0  0  0  0  0  0  0  0  0
   -4.7073   -0.3880    4.6513 H   0  0  0  0  0  0  0  0  0  0  0  0
   -5.8223   -1.8225    3.1555 H   0  0  0  0  0  0  0  0  0  0  0  0
   -4.3679   -2.8235    3.2255 H   0  0  0  0  0  0  0  0  0  0  0  0
  1  2  1  0  0  0  0
  2  6  1  0  0  0  0
  2  3  2  0  0  0  0
  3  4  2  0  0  0  0
  4  5  1  0  0  0  0
  4 16  1  0  0  0  0
  5 17  1  0  0  0  0
  6  5  1  0  0  0  0
  7  6  1  0  0  0  0
  7 12  1  1  0  0  0
  8  9  1  0  0  0  0
  8 20  1  0  0  0  0
  8  7  1  0  0  0  0
  9 21  1  6  0  0  0
  9 14  1  0  0  0  0
 10  9  1  0  0  0  0
 10 11  1  0  0  0  0
 11 25  1  0  0  0  0
 11 12  1  0  0  0  0
 12 26  1  1  0  0  0
 12 13  1  0  0  0  0
 13 27  1  0  0  0  0
 13 28  1  0  0  0  0
 14 29  1  0  0  0  0
 14 30  1  0  0  0  0
 14 13  1  0  0  0  0
 15  1  1  0  0  0  0
 18  7  1  0  0  0  0
 19  8  1  0  0  0  0
 22 10  1  0  0  0  0
 23 10  1  0  0  0  0
 24 11  1  0  0  0  0
M  RAD  1   5   2
M  END
