266382342.xyz
 OpenBabel07262113453D
O=C1CCC(C(N1)C)n1cnnc1S
 26 27  0  0  1  0  0  0  0  0999 V2000
   -6.5997   -0.4579    1.6481 O   0  0  0  0  0  0  0  0  0  0  0  0
   -5.4062   -0.3184    1.8370 C   0  0  0  0  0  0  0  0  0  0  0  0
   -4.7705    1.0557    2.0141 C   0  0  0  0  0  0  0  0  0  0  0  0
   -3.3979    1.0363    2.6821 C   0  0  0  0  0  0  0  0  0  0  0  0
   -2.5251   -0.0308    2.0237 C   0  0  2  0  0  0  0  0  0  0  0  0
   -3.1410   -1.4266    2.2218 C   0  0  1  0  0  0  0  0  0  0  0  0
   -4.5454   -1.3875    1.8333 N   0  0  0  0  0  0  0  0  0  0  0  0
   -2.4096   -2.5141    1.4417 C   0  0  0  0  0  0  0  0  0  0  0  0
   -1.1515    0.0020    2.5071 N   0  0  0  0  0  0  0  0  0  0  0  0
   -0.7040   -0.0047    3.8125 C   0  0  0  0  0  0  0  0  0  0  0  0
    0.6012   -0.0025    3.8484 N   0  0  0  0  0  0  0  0  0  0  0  0
    1.0526    0.0000    2.5550 N   0  0  0  0  0  0  0  0  0  0  0  0
   -0.0000   -0.0000    1.7574 C   0  0  0  0  0  0  0  0  0  0  0  0
    0.0000    0.0000    0.0000 S   0  0  0  0  0  0  0  0  0  0  0  0
   -5.4912    1.6763    2.5640 H   0  0  0  0  0  0  0  0  0  0  0  0
   -4.6950    1.4915    1.0025 H   0  0  0  0  0  0  0  0  0  0  0  0
   -3.5027    0.8114    3.7572 H   0  0  0  0  0  0  0  0  0  0  0  0
   -2.9078    2.0183    2.6042 H   0  0  0  0  0  0  0  0  0  0  0  0
   -2.4769    0.1746    0.9423 H   0  0  0  0  0  0  0  0  0  0  0  0
   -3.0572   -1.6599    3.3034 H   0  0  0  0  0  0  0  0  0  0  0  0
   -5.0144   -2.2812    1.7124 H   0  0  0  0  0  0  0  0  0  0  0  0
   -1.3641   -2.5961    1.7707 H   0  0  0  0  0  0  0  0  0  0  0  0
   -2.4194   -2.2954    0.3633 H   0  0  0  0  0  0  0  0  0  0  0  0
   -2.8894   -3.4921    1.6049 H   0  0  0  0  0  0  0  0  0  0  0  0
   -1.3678   -0.0062    4.6748 H   0  0  0  0  0  0  0  0  0  0  0  0
    2.3112    0.1225   -0.1983 Au  0  0  0  0  0  0  0  0  0  0  0  0
  1  2  2  0  0  0  0
  2  3  1  0  0  0  0
  3 15  1  0  0  0  0
  3  4  1  0  0  0  0
  4 17  1  0  0  0  0
  5  6  1  1  0  0  0
  5  9  1  0  0  0  0
  5  4  1  0  0  0  0
  6 20  1  1  0  0  0
  7  2  1  0  0  0  0
  7  6  1  0  0  0  0
  8 24  1  0  0  0  0
  8 22  1  0  0  0  0
  8  6  1  0  0  0  0
  9 10  1  0  0  0  0
 10 11  2  0  0  0  0
 10 25  1  0  0  0  0
 12 11  1  0  0  0  0
 13  9  1  0  0  0  0
 13 12  2  0  0  0  0
 14 13  1  0  0  0  0
 16  3  1  0  0  0  0
 18  4  1  0  0  0  0
 19  5  1  0  0  0  0
 21  7  1  0  0  0  0
 23  8  1  0  0  0  0
 26 14  1  0  0  0  0
M  END
