266461402.xyz
 OpenBabel07262113453D
CCn1c(S)nnc1CS(=O)(=O)C
 24 24  0  0  0  0  0  0  0  0999 V2000
   -3.0783   -1.3823    1.7285 C   0  0  0  0  0  0  0  0  0  0  0  0
   -2.5270    0.0141    1.9927 C   0  0  0  0  0  0  0  0  0  0  0  0
   -1.1545   -0.0102    2.4937 N   0  0  0  0  0  0  0  0  0  0  0  0
    0.0000   -0.0000    1.7549 C   0  0  0  0  0  0  0  0  0  0  0  0
    0.0000    0.0000    0.0000 S   0  0  0  0  0  0  0  0  0  0  0  0
    1.0519    0.0000    2.5588 N   0  0  0  0  0  0  0  0  0  0  0  0
    0.5911   -0.0176    3.8419 N   0  0  0  0  0  0  0  0  0  0  0  0
   -0.7225   -0.0404    3.8023 C   0  0  0  0  0  0  0  0  0  0  0  0
   -1.5959   -0.0073    4.9948 C   0  0  0  0  0  0  0  0  0  0  0  0
   -2.1137    1.7001    5.4420 S   0  0  0  0  0  0  0  0  0  0  0  0
   -3.0020    1.5934    6.6050 O   0  0  0  0  0  0  0  0  0  0  0  0
   -2.5739    2.3492    4.2020 O   0  0  0  0  0  0  0  0  0  0  0  0
   -0.5771    2.4899    5.9440 C   0  0  0  0  0  0  0  0  0  0  0  0
   -2.4627   -1.9125    0.9860 H   0  0  0  0  0  0  0  0  0  0  0  0
   -3.0995   -1.9846    2.6505 H   0  0  0  0  0  0  0  0  0  0  0  0
   -4.1060   -1.3149    1.3405 H   0  0  0  0  0  0  0  0  0  0  0  0
   -3.1268    0.5776    2.7190 H   0  0  0  0  0  0  0  0  0  0  0  0
   -2.5177    0.6135    1.0700 H   0  0  0  0  0  0  0  0  0  0  0  0
    2.3028    0.1787   -0.2223 Au  0  0  0  0  0  0  0  0  0  0  0  0
   -1.0737   -0.4197    5.8676 H   0  0  0  0  0  0  0  0  0  0  0  0
   -2.5558   -0.5275    4.8681 H   0  0  0  0  0  0  0  0  0  0  0  0
   -0.2726    2.0732    6.9121 H   0  0  0  0  0  0  0  0  0  0  0  0
   -0.8177    3.5577    6.0325 H   0  0  0  0  0  0  0  0  0  0  0  0
    0.1843    2.3128    5.1733 H   0  0  0  0  0  0  0  0  0  0  0  0
  1  2  1  0  0  0  0
  1 15  1  0  0  0  0
  2  3  1  0  0  0  0
  2 17  1  0  0  0  0
  3  8  1  0  0  0  0
  4  3  1  0  0  0  0
  4  6  2  0  0  0  0
  5  4  1  0  0  0  0
  6  7  1  0  0  0  0
  8  7  2  0  0  0  0
  8  9  1  0  0  0  0
  9 10  1  0  0  0  0
  9 20  1  0  0  0  0
 10 13  1  0  0  0  0
 10 11  2  0  0  0  0
 12 10  2  0  0  0  0
 13 23  1  0  0  0  0
 13 22  1  0  0  0  0
 14  1  1  0  0  0  0
 16  1  1  0  0  0  0
 18  2  1  0  0  0  0
 19  5  1  0  0  0  0
 21  9  1  0  0  0  0
 24 13  1  0  0  0  0
M  END
