266402745.xyz
 OpenBabel07262113453D
CCN1CC(C1)n1c(S)ncc1CO
 29 30  0  0  1  0  0  0  0  0999 V2000
    4.5853   -3.5106    0.3535 C   0  0  0  0  0  0  0  0  0  0  0  0
    4.8063   -2.4442    1.4190 C   0  0  0  0  0  0  0  0  0  0  0  0
    3.5675   -1.8178    1.8135 N   0  0  0  0  0  0  0  0  0  0  0  0
    2.8555   -0.9527    0.8738 C   0  0  0  0  0  0  0  0  0  0  0  0
    2.5242    0.0283    2.0305 C   0  0  0  0  0  0  0  0  0  0  0  0
    3.5726   -0.7828    2.8413 C   0  0  0  0  0  0  0  0  0  0  0  0
    1.1562    0.0000    2.5298 N   0  0  0  0  0  0  0  0  0  0  0  0
    0.0000    0.0000    1.7723 C   0  0  0  0  0  0  0  0  0  0  0  0
    0.0000    0.0000    0.0000 S   0  0  0  0  0  0  0  0  0  0  0  0
   -1.0759    0.0943    2.5278 N   0  0  0  0  0  0  0  0  0  0  0  0
   -0.6243    0.1835    3.8206 C   0  0  0  0  0  0  0  0  0  0  0  0
    0.7507    0.1470    3.8597 C   0  0  2  0  0  0  0  0  0  0  0  0
    1.6443    0.3249    5.0548 C   0  0  0  0  0  0  0  0  0  0  0  0
    0.9597    0.9619    6.1081 O   0  0  0  0  0  0  0  0  0  0  0  0
    3.8926   -4.2834    0.7203 H   0  0  0  0  0  0  0  0  0  0  0  0
    5.5359   -3.9905    0.0740 H   0  0  0  0  0  0  0  0  0  0  0  0
    4.1505   -3.0745   -0.5607 H   0  0  0  0  0  0  0  0  0  0  0  0
    5.5414   -1.6883    1.0481 H   0  0  0  0  0  0  0  0  0  0  0  0
    5.2556   -2.8994    2.3185 H   0  0  0  0  0  0  0  0  0  0  0  0
    3.5064   -0.4674    0.1177 H   0  0  0  0  0  0  0  0  0  0  0  0
    2.0093   -1.4250    0.3522 H   0  0  0  0  0  0  0  0  0  0  0  0
    2.8123    1.0717    1.8303 H   0  0  0  0  0  0  0  0  0  0  0  0
    3.2931   -1.1365    3.8436 H   0  0  0  0  0  0  0  0  0  0  0  0
    4.5285   -0.2236    2.9188 H   0  0  0  0  0  0  0  0  0  0  0  0
   -2.2199    0.6016   -0.2556 Au  0  0  0  0  0  0  0  0  0  0  0  0
   -1.3033    0.2751    4.6658 H   0  0  0  0  0  0  0  0  0  0  0  0
    2.5629    0.8766    4.7654 H   0  0  0  0  0  0  0  0  0  0  0  0
    1.9797   -0.6443    5.4625 H   0  0  0  0  0  0  0  0  0  0  0  0
    0.5480    1.7589    5.7452 H   0  0  0  0  0  0  0  0  0  0  0  0
  1 15  1  0  0  0  0
  1  2  1  0  0  0  0
  2  3  1  0  0  0  0
  2 19  1  0  0  0  0
  3  6  1  0  0  0  0
  4  3  1  0  0  0  0
  4  5  1  0  0  0  0
  5  7  1  0  0  0  0
  5  6  1  0  0  0  0
  6 24  1  0  0  0  0
  6 23  1  0  0  0  0
  7 12  1  0  0  0  0
  8 10  2  0  0  0  0
  8  7  1  0  0  0  0
  9  8  1  0  0  0  0
 10 11  2  0  0  0  0
 11 12  1  0  0  0  0
 11 26  1  0  0  0  0
 12 13  1  6  0  0  0
 13 28  1  0  0  0  0
 13 14  1  0  0  0  0
 16  1  1  0  0  0  0
 17  1  1  0  0  0  0
 18  2  1  0  0  0  0
 20  4  1  0  0  0  0
 21  4  1  0  0  0  0
 22  5  1  0  0  0  0
 25  9  1  0  0  0  0
 27 13  1  0  0  0  0
 29 14  1  0  0  0  0
M  RAD  1  12   2
M  END
