266521785.xyz
 OpenBabel07262113453D
CN(C(C)(C)C)C(=O)c1scc(c1)S
 29 29  0  0  0  0  0  0  0  0999 V2000
   -3.2911   -1.7969    4.1336 C   0  0  0  0  0  0  0  0  0  0  0  0
   -3.0388   -0.6511    5.0018 N   0  0  0  0  0  0  0  0  0  0  0  0
   -4.0613   -0.3449    6.0565 C   0  0  0  0  0  0  0  0  0  0  0  0
   -5.4579   -0.7190    5.5297 C   0  0  0  0  0  0  0  0  0  0  0  0
   -4.0793    1.1657    6.3496 C   0  0  0  0  0  0  0  0  0  0  0  0
   -3.7517   -1.1477    7.3308 C   0  0  0  0  0  0  0  0  0  0  0  0
   -1.7643   -0.1451    5.1330 C   0  0  0  0  0  0  0  0  0  0  0  0
   -1.3310    0.3663    6.1592 O   0  0  0  0  0  0  0  0  0  0  0  0
   -0.8857   -0.1698    3.9260 C   0  0  0  0  0  0  0  0  0  0  0  0
    0.8368   -0.0944    4.2096 S   0  0  0  0  0  0  0  0  0  0  0  0
    1.1581    0.0000    2.5252 C   0  0  0  0  0  0  0  0  0  0  0  0
   -0.0000    0.0000    1.7662 C   0  0  0  0  0  0  0  0  0  0  0  0
   -1.1728   -0.0977    2.5832 C   0  0  0  0  0  0  0  0  0  0  0  0
    0.0000    0.0000    0.0000 S   0  0  0  0  0  0  0  0  0  0  0  0
   -3.6519   -2.6526    4.7269 H   0  0  0  0  0  0  0  0  0  0  0  0
   -2.3632   -2.1103    3.6463 H   0  0  0  0  0  0  0  0  0  0  0  0
   -4.0381   -1.5839    3.3533 H   0  0  0  0  0  0  0  0  0  0  0  0
   -5.6798   -0.2025    4.5832 H   0  0  0  0  0  0  0  0  0  0  0  0
   -5.5866   -1.7995    5.3780 H   0  0  0  0  0  0  0  0  0  0  0  0
   -6.2079   -0.4028    6.2687 H   0  0  0  0  0  0  0  0  0  0  0  0
   -4.8980    1.3874    7.0506 H   0  0  0  0  0  0  0  0  0  0  0  0
   -4.2614    1.7300    5.4215 H   0  0  0  0  0  0  0  0  0  0  0  0
   -3.1370    1.5071    6.7892 H   0  0  0  0  0  0  0  0  0  0  0  0
   -3.7460   -2.2297    7.1214 H   0  0  0  0  0  0  0  0  0  0  0  0
   -4.5184   -0.9590    8.0985 H   0  0  0  0  0  0  0  0  0  0  0  0
   -2.7706   -0.8600    7.7300 H   0  0  0  0  0  0  0  0  0  0  0  0
    2.1782    0.0611    2.1496 H   0  0  0  0  0  0  0  0  0  0  0  0
   -2.1809   -0.0931    2.1712 H   0  0  0  0  0  0  0  0  0  0  0  0
   -0.4322    2.2023   -0.5331 Au  0  0  0  0  0  0  0  0  0  0  0  0
  1 15  1  0  0  0  0
  1  2  1  0  0  0  0
  2  7  1  0  0  0  0
  2  3  1  0  0  0  0
  3  5  1  0  0  0  0
  3  6  1  0  0  0  0
  4  3  1  0  0  0  0
  4 20  1  0  0  0  0
  5 23  1  0  0  0  0
  5 21  1  0  0  0  0
  6 26  1  0  0  0  0
  6 25  1  0  0  0  0
  7  8  2  0  0  0  0
  9 10  1  0  0  0  0
  9  7  1  0  0  0  0
 11 10  1  0  0  0  0
 12 11  2  0  0  0  0
 12 13  1  0  0  0  0
 13  9  2  0  0  0  0
 14 12  1  0  0  0  0
 16  1  1  0  0  0  0
 17  1  1  0  0  0  0
 18  4  1  0  0  0  0
 19  4  1  0  0  0  0
 22  5  1  0  0  0  0
 24  6  1  0  0  0  0
 27 11  1  0  0  0  0
 28 13  1  0  0  0  0
 29 14  1  0  0  0  0
M  END
