266528667.xyz
 OpenBabel07262113453D
O=C(C(S)C)NC(c1scc(n1)C)C
 28 28  0  0  1  0  0  0  0  0999 V2000
   -0.8768   -1.1377    3.7584 O   0  0  0  0  0  0  0  0  0  0  0  0
   -0.8935   -1.0500    2.5407 C   0  0  0  0  0  0  0  0  0  0  0  0
    0.0000   -0.0000    1.8427 C   0  0  2  0  0  0  0  0  0  0  0  0
    0.0000    0.0000    0.0000 S   0  0  0  0  0  0  0  0  0  0  0  0
    1.3954    0.0000    2.4632 C   0  0  0  0  0  0  0  0  0  0  0  0
   -1.6531   -1.8259    1.7290 N   0  0  0  0  0  0  0  0  0  0  0  0
   -2.5768   -2.8528    2.1978 C   0  0  1  0  0  0  0  0  0  0  0  0
   -3.2304   -3.4955    1.0037 C   0  0  0  0  0  0  0  0  0  0  0  0
   -2.2832   -3.9778   -0.4049 S   0  0  0  0  0  0  0  0  0  0  0  0
   -3.7272   -4.6434   -1.0941 C   0  0  0  0  0  0  0  0  0  0  0  0
   -4.7915   -4.4731   -0.2446 C   0  0  0  0  0  0  0  0  0  0  0  0
   -4.4826   -3.8221    0.9327 N   0  0  0  0  0  0  0  0  0  0  0  0
   -6.2012   -4.9116   -0.4935 C   0  0  0  0  0  0  0  0  0  0  0  0
   -1.8815   -3.9113    3.0685 C   0  0  0  0  0  0  0  0  0  0  0  0
   -0.4799    0.9749    2.0510 H   0  0  0  0  0  0  0  0  0  0  0  0
    1.0016   -2.0112   -0.5175 Au  0  0  0  0  0  0  0  0  0  0  0  0
    1.9997    0.8236    2.0593 H   0  0  0  0  0  0  0  0  0  0  0  0
    1.3097    0.1002    3.5542 H   0  0  0  0  0  0  0  0  0  0  0  0
    1.9098   -0.9492    2.2417 H   0  0  0  0  0  0  0  0  0  0  0  0
   -1.6870   -1.5489    0.7507 H   0  0  0  0  0  0  0  0  0  0  0  0
   -3.3908   -2.3937    2.7844 H   0  0  0  0  0  0  0  0  0  0  0  0
   -3.7207   -5.1074   -2.0783 H   0  0  0  0  0  0  0  0  0  0  0  0
   -6.5335   -5.6051    0.2956 H   0  0  0  0  0  0  0  0  0  0  0  0
   -6.8832   -4.0465   -0.4709 H   0  0  0  0  0  0  0  0  0  0  0  0
   -6.3004   -5.4124   -1.4665 H   0  0  0  0  0  0  0  0  0  0  0  0
   -1.0882   -4.4135    2.4934 H   0  0  0  0  0  0  0  0  0  0  0  0
   -2.6175   -4.6645    3.3850 H   0  0  0  0  0  0  0  0  0  0  0  0
   -1.4406   -3.4333    3.9517 H   0  0  0  0  0  0  0  0  0  0  0  0
  2  1  2  0  0  0  0
  3 15  1  1  0  0  0
  3  5  1  0  0  0  0
  3  2  1  0  0  0  0
  4  3  1  0  0  0  0
  5 18  1  0  0  0  0
  6  7  1  0  0  0  0
  6  2  1  0  0  0  0
  7 21  1  1  0  0  0
  7 14  1  0  0  0  0
  8  7  1  0  0  0  0
  9  8  1  0  0  0  0
 10  9  1  0  0  0  0
 10 11  1  0  0  0  0
 11 12  2  0  0  0  0
 12  8  2  0  0  0  0
 13 24  1  0  0  0  0
 13 11  1  0  0  0  0
 13 23  1  0  0  0  0
 14 27  1  0  0  0  0
 14 28  1  0  0  0  0
 16  4  1  0  0  0  0
 17  5  1  0  0  0  0
 19  5  1  0  0  0  0
 20  6  1  0  0  0  0
 22 10  1  0  0  0  0
 25 13  1  0  0  0  0
 26 14  1  0  0  0  0
M  RAD  1  10   2
M  END
