26811146.xyz
 OpenBabel07262113453D
C=CCN1C(=N/C(=C/c2ccc(cc2)Cl)/C1=O)S
 29 30  0  0  0  0  0  0  0  0999 V2000
   -3.3548   -1.4590    0.0238 C   0  0  0  0  0  0  0  0  0  0  0  0
   -2.9532   -1.2983    1.2856 C   0  0  0  0  0  0  0  0  0  0  0  0
   -2.5607    0.0231    1.8875 C   0  0  0  0  0  0  0  0  0  0  0  0
   -1.2130    0.0146    2.4351 N   0  0  0  0  0  0  0  0  0  0  0  0
   -0.0000    0.0000    1.7507 C   0  0  0  0  0  0  0  0  0  0  0  0
    1.0368    0.0000    2.5349 N   0  0  0  0  0  0  0  0  0  0  0  0
    0.5615    0.0109    3.8543 C   0  0  0  0  0  0  0  0  0  0  0  0
    1.4344    0.0121    4.9039 C   0  0  0  0  0  0  0  0  0  0  0  0
    1.2767    0.0203    6.3471 C   0  0  0  0  0  0  0  0  0  0  0  0
    2.4621    0.0114    7.1198 C   0  0  0  0  0  0  0  0  0  0  0  0
    2.4310    0.0175    8.5096 C   0  0  0  0  0  0  0  0  0  0  0  0
    1.1934    0.0332    9.1604 C   0  0  0  0  0  0  0  0  0  0  0  0
    0.0023    0.0428    8.4271 C   0  0  0  0  0  0  0  0  0  0  0  0
    0.0419    0.0366    7.0361 C   0  0  0  0  0  0  0  0  0  0  0  0
    1.1368    0.0412   10.9039 Cl  0  0  0  0  0  0  0  0  0  0  0  0
   -0.9372    0.0189    3.8084 C   0  0  0  0  0  0  0  0  0  0  0  0
   -1.7962    0.0311    4.6713 O   0  0  0  0  0  0  0  0  0  0  0  0
    0.0000    0.0000    0.0000 S   0  0  0  0  0  0  0  0  0  0  0  0
   -3.6415   -2.4395   -0.3648 H   0  0  0  0  0  0  0  0  0  0  0  0
   -3.4088   -0.6134   -0.6696 H   0  0  0  0  0  0  0  0  0  0  0  0
   -2.8917   -2.1592    1.9615 H   0  0  0  0  0  0  0  0  0  0  0  0
   -3.2120    0.2621    2.7434 H   0  0  0  0  0  0  0  0  0  0  0  0
   -2.6497    0.8333    1.1464 H   0  0  0  0  0  0  0  0  0  0  0  0
    2.4763    0.0034    4.5676 H   0  0  0  0  0  0  0  0  0  0  0  0
    3.4287   -0.0011    6.6102 H   0  0  0  0  0  0  0  0  0  0  0  0
    3.3525    0.0103    9.0930 H   0  0  0  0  0  0  0  0  0  0  0  0
   -0.9539    0.0554    8.9521 H   0  0  0  0  0  0  0  0  0  0  0  0
   -0.8871    0.0443    6.4675 H   0  0  0  0  0  0  0  0  0  0  0  0
    2.2903    0.2272   -0.2722 Au  0  0  0  0  0  0  0  0  0  0  0  0
  1  2  2  0  0  0  0
  2  3  1  0  0  0  0
  2 21  1  0  0  0  0
  3  4  1  0  0  0  0
  3 22  1  0  0  0  0
  4 16  1  0  0  0  0
  5  4  1  0  0  0  0
  5  6  2  0  0  0  0
  6  7  2  0  0  0  0
  7  8  1  0  0  0  0
  8  9  1  0  0  0  0
  9 14  2  0  0  0  0
  9 10  1  0  0  0  0
 10 11  2  0  0  0  0
 11 26  1  0  0  0  0
 11 12  1  0  0  0  0
 12 15  1  0  0  0  0
 13 27  1  0  0  0  0
 13 12  2  0  0  0  0
 14 13  1  0  0  0  0
 16  7  1  0  0  0  0
 16 17  2  0  0  0  0
 18  5  1  0  0  0  0
 19  1  1  0  0  0  0
 20  1  1  0  0  0  0
 23  3  1  0  0  0  0
 24  8  1  0  0  0  0
 25 10  1  0  0  0  0
 28 14  1  0  0  0  0
 29 18  1  0  0  0  0
M  RAD  1   8   2
M  END
