27334832.xyz
 OpenBabel07262113453D
O=C1/C(=C\c2ccc(cc2)[N+](=O)[O-])/N=C(N1c1ccccc1)S
 34 36  0  0  0  0  0  0  0  0999 V2000
   -1.4901    0.1808    4.8497 O   0  0  0  0  0  0  0  0  0  0  0  0
   -0.7349    0.1246    3.9016 C   0  0  0  0  0  0  0  0  0  0  0  0
    0.7641    0.0944    3.7868 C   0  0  0  0  0  0  0  0  0  0  0  0
    1.7469    0.1289    4.7348 C   0  0  0  0  0  0  0  0  0  0  0  0
    1.7448    0.2024    6.1851 C   0  0  0  0  0  0  0  0  0  0  0  0
    0.5878    0.2650    6.9978 C   0  0  0  0  0  0  0  0  0  0  0  0
    0.6996    0.3327    8.3821 C   0  0  0  0  0  0  0  0  0  0  0  0
    1.9664    0.3388    8.9681 C   0  0  0  0  0  0  0  0  0  0  0  0
    3.1314    0.2789    8.2017 C   0  0  0  0  0  0  0  0  0  0  0  0
    3.0117    0.2113    6.8202 C   0  0  0  0  0  0  0  0  0  0  0  0
    2.0800    0.4104   10.4359 N   0  0  0  0  0  0  0  0  0  0  0  0
    3.2032    0.4143   10.9155 O   0  0  0  0  0  0  0  0  0  0  0  0
    1.0447    0.4613   11.0811 O   0  0  0  0  0  0  0  0  0  0  0  0
    1.1009   -0.0000    2.4355 N   0  0  0  0  0  0  0  0  0  0  0  0
   -0.0000    0.0000    1.7516 C   0  0  0  0  0  0  0  0  0  0  0  0
   -1.1519    0.0763    2.5599 N   0  0  0  0  0  0  0  0  0  0  0  0
   -2.5112    0.1440    2.1549 C   0  0  0  0  0  0  0  0  0  0  0  0
   -3.3157   -1.0029    2.2316 C   0  0  0  0  0  0  0  0  0  0  0  0
   -4.6411   -0.9496    1.7861 C   0  0  0  0  0  0  0  0  0  0  0  0
   -5.1596    0.2438    1.2717 C   0  0  0  0  0  0  0  0  0  0  0  0
   -4.3578    1.3875    1.2142 C   0  0  0  0  0  0  0  0  0  0  0  0
   -3.0347    1.3414    1.6587 C   0  0  0  0  0  0  0  0  0  0  0  0
    0.0000    0.0000    0.0000 S   0  0  0  0  0  0  0  0  0  0  0  0
    2.7439    0.0896    4.2851 H   0  0  0  0  0  0  0  0  0  0  0  0
   -0.3953    0.2596    6.5298 H   0  0  0  0  0  0  0  0  0  0  0  0
   -0.1812    0.3814    9.0211 H   0  0  0  0  0  0  0  0  0  0  0  0
    4.1002    0.2862    8.6990 H   0  0  0  0  0  0  0  0  0  0  0  0
    3.9137    0.1637    6.2063 H   0  0  0  0  0  0  0  0  0  0  0  0
   -2.8968   -1.9208    2.6475 H   0  0  0  0  0  0  0  0  0  0  0  0
   -5.2697   -1.8406    1.8487 H   0  0  0  0  0  0  0  0  0  0  0  0
   -6.1938    0.2834    0.9227 H   0  0  0  0  0  0  0  0  0  0  0  0
   -4.7636    2.3213    0.8195 H   0  0  0  0  0  0  0  0  0  0  0  0
   -2.3919    2.2212    1.6056 H   0  0  0  0  0  0  0  0  0  0  0  0
   -1.9185   -1.2147   -0.4864 Au  0  0  0  0  0  0  0  0  0  0  0  0
  2  1  2  0  0  0  0
  3  2  1  0  0  0  0
  3  4  1  0  0  0  0
  4  5  1  0  0  0  0
  5 10  2  0  0  0  0
  5  6  1  0  0  0  0
  6  7  2  0  0  0  0
  7  8  1  0  0  0  0
  7 26  1  0  0  0  0
  8 11  1  0  0  0  0
  9 27  1  0  0  0  0
  9  8  2  0  0  0  0
 10  9  1  0  0  0  0
 11 12  2  0  0  0  0
 11 13  2  0  0  0  0
 14  3  2  0  0  0  0
 15 14  2  0  0  0  0
 15 16  1  0  0  0  0
 16  2  1  0  0  0  0
 17 18  1  0  0  0  0
 17 16  1  0  0  0  0
 18 29  1  0  0  0  0
 19 30  1  0  0  0  0
 19 18  2  0  0  0  0
 20 19  1  0  0  0  0
 21 20  2  0  0  0  0
 21 22  1  0  0  0  0
 22 17  2  0  0  0  0
 23 15  1  0  0  0  0
 24  4  1  0  0  0  0
 25  6  1  0  0  0  0
 28 10  1  0  0  0  0
 31 20  1  0  0  0  0
 32 21  1  0  0  0  0
 33 22  1  0  0  0  0
 34 23  1  0  0  0  0
M  RAD  1   4   2
M  END
