27334502.xyz
 OpenBabel07262113453D
Cc1c(NC(=O)CC2SC(=NC2=O)S)cccc1C
 33 34  0  0  1  0  0  0  0  0999 V2000
    3.1816    4.9452    6.8217 C   0  0  0  0  0  0  0  0  0  0  0  0
    2.3877    5.6185    5.7269 C   0  0  0  0  0  0  0  0  0  0  0  0
    1.5222    4.8418    4.9186 C   0  0  0  0  0  0  0  0  0  0  0  0
    1.4543    3.4581    5.1880 N   0  0  0  0  0  0  0  0  0  0  0  0
    0.7013    2.4894    4.5774 C   0  0  0  0  0  0  0  0  0  0  0  0
   -0.0523    2.6758    3.6400 O   0  0  0  0  0  0  0  0  0  0  0  0
    0.8518    1.1052    5.2062 C   0  0  0  0  0  0  0  0  0  0  0  0
    0.5332   -0.0114    4.2184 C   0  0  2  0  0  0  0  0  0  0  0  0
    1.5218    0.0000    2.6820 S   0  0  0  0  0  0  0  0  0  0  0  0
   -0.0000    0.0000    1.7452 C   0  0  0  0  0  0  0  0  0  0  0  0
   -1.1182   -0.0156    2.3747 N   0  0  0  0  0  0  0  0  0  0  0  0
   -0.9621    0.0282    3.7614 C   0  0  0  0  0  0  0  0  0  0  0  0
   -1.8491    0.0537    4.5729 O   0  0  0  0  0  0  0  0  0  0  0  0
    0.0000    0.0000    0.0000 S   0  0  0  0  0  0  0  0  0  0  0  0
    0.7690    5.4328    3.8929 C   0  0  0  0  0  0  0  0  0  0  0  0
    0.8810    6.8037    3.6746 C   0  0  0  0  0  0  0  0  0  0  0  0
    1.7283    7.5816    4.4611 C   0  0  0  0  0  0  0  0  0  0  0  0
    2.4869    7.0046    5.4895 C   0  0  0  0  0  0  0  0  0  0  0  0
    3.3926    7.8828    6.3206 C   0  0  0  0  0  0  0  0  0  0  0  0
    2.5239    4.4565    7.5632 H   0  0  0  0  0  0  0  0  0  0  0  0
    3.8084    5.6528    7.3749 H   0  0  0  0  0  0  0  0  0  0  0  0
    3.8573    4.1687    6.4196 H   0  0  0  0  0  0  0  0  0  0  0  0
    2.0365    3.1379    5.9498 H   0  0  0  0  0  0  0  0  0  0  0  0
    1.8491    0.9678    5.6530 H   0  0  0  0  0  0  0  0  0  0  0  0
    0.1105    1.0241    6.0213 H   0  0  0  0  0  0  0  0  0  0  0  0
    0.6807   -0.9822    4.7155 H   0  0  0  0  0  0  0  0  0  0  0  0
    2.2509    0.0977   -0.5006 Au  0  0  0  0  0  0  0  0  0  0  0  0
    0.1129    4.8117    3.2895 H   0  0  0  0  0  0  0  0  0  0  0  0
    0.2953    7.2678    2.8776 H   0  0  0  0  0  0  0  0  0  0  0  0
    1.8072    8.6563    4.2802 H   0  0  0  0  0  0  0  0  0  0  0  0
    4.4480    7.5711    6.2509 H   0  0  0  0  0  0  0  0  0  0  0  0
    3.1196    7.8635    7.3887 H   0  0  0  0  0  0  0  0  0  0  0  0
    3.3343    8.9274    5.9843 H   0  0  0  0  0  0  0  0  0  0  0  0
  1 21  1  0  0  0  0
  1 20  1  0  0  0  0
  2  1  1  0  0  0  0
  3  4  1  0  0  0  0
  3  2  2  0  0  0  0
  4 23  1  0  0  0  0
  5  4  1  0  0  0  0
  5  7  1  0  0  0  0
  6  5  2  0  0  0  0
  7 24  1  0  0  0  0
  7 25  1  0  0  0  0
  8 26  1  1  0  0  0
  8  7  1  0  0  0  0
  9  8  1  0  0  0  0
 10 11  2  0  0  0  0
 10  9  1  0  0  0  0
 11 12  2  0  0  0  0
 12  8  1  0  0  0  0
 12 13  2  0  0  0  0
 14 10  1  0  0  0  0
 15  3  1  0  0  0  0
 16 15  2  0  0  0  0
 16 17  1  0  0  0  0
 17 18  2  0  0  0  0
 18  2  1  0  0  0  0
 18 19  1  0  0  0  0
 19 32  1  0  0  0  0
 22  1  1  0  0  0  0
 27 14  1  0  0  0  0
 28 15  1  0  0  0  0
 29 16  1  0  0  0  0
 30 17  1  0  0  0  0
 31 19  1  0  0  0  0
 33 19  1  0  0  0  0
M  END
