276882136.xyz
 OpenBabel07262113453D
SCc1ccn(n1)c1ccccc1
 23 24  0  0  0  0  0  0  0  0999 V2000
    0.0000    0.0000    0.0000 S   0  0  0  0  0  0  0  0  0  0  0  0
   -0.0000    0.0000    1.8519 C   0  0  0  0  0  0  0  0  0  0  0  0
    1.3632    0.0000    2.4549 C   0  0  0  0  0  0  0  0  0  0  0  0
    2.2565   -1.0908    2.6421 C   0  0  0  0  0  0  0  0  0  0  0  0
    3.4059   -0.5204    3.1476 C   0  0  0  0  0  0  0  0  0  0  0  0
    3.1752    0.8271    3.2337 N   0  0  0  0  0  0  0  0  0  0  0  0
    1.9316    1.1452    2.8177 N   0  0  0  0  0  0  0  0  0  0  0  0
    4.0527    1.8361    3.7002 C   0  0  0  0  0  0  0  0  0  0  0  0
    5.4323    1.6015    3.7745 C   0  0  0  0  0  0  0  0  0  0  0  0
    6.2795    2.6035    4.2505 C   0  0  0  0  0  0  0  0  0  0  0  0
    5.7651    3.8428    4.6396 C   0  0  0  0  0  0  0  0  0  0  0  0
    4.3888    4.0734    4.5494 C   0  0  0  0  0  0  0  0  0  0  0  0
    3.5294    3.0780    4.0856 C   0  0  0  0  0  0  0  0  0  0  0  0
    1.2547    1.8767   -0.4330 Au  0  0  0  0  0  0  0  0  0  0  0  0
   -0.5795    0.8543    2.2249 H   0  0  0  0  0  0  0  0  0  0  0  0
   -0.5403   -0.9262    2.1050 H   0  0  0  0  0  0  0  0  0  0  0  0
    2.0770   -2.1419    2.4315 H   0  0  0  0  0  0  0  0  0  0  0  0
    4.3423   -0.9649    3.4712 H   0  0  0  0  0  0  0  0  0  0  0  0
    5.8506    0.6495    3.4459 H   0  0  0  0  0  0  0  0  0  0  0  0
    7.3540    2.4136    4.3053 H   0  0  0  0  0  0  0  0  0  0  0  0
    6.4326    4.6250    5.0070 H   0  0  0  0  0  0  0  0  0  0  0  0
    3.9752    5.0392    4.8493 H   0  0  0  0  0  0  0  0  0  0  0  0
    2.4547    3.2385    4.0123 H   0  0  0  0  0  0  0  0  0  0  0  0
  1  2  1  0  0  0  0
  2 16  1  0  0  0  0
  2 15  1  0  0  0  0
  2  3  1  0  0  0  0
  3  4  1  0  0  0  0
  3  7  2  0  0  0  0
  4  5  2  0  0  0  0
  5  6  1  0  0  0  0
  5 18  1  0  0  0  0
  6  8  1  0  0  0  0
  7  6  1  0  0  0  0
  8  9  2  0  0  0  0
  8 13  1  0  0  0  0
  9 10  1  0  0  0  0
 10 20  1  0  0  0  0
 10 11  2  0  0  0  0
 11 21  1  0  0  0  0
 12 11  1  0  0  0  0
 12 22  1  0  0  0  0
 13 12  2  0  0  0  0
 14  1  1  0  0  0  0
 17  4  1  0  0  0  0
 19  9  1  0  0  0  0
 23 13  1  0  0  0  0
M  END
