276846958.xyz
 OpenBabel07262113453D
C=CC(n1c(S)nnc1c1cccc(c1)I)C
 29 30  0  0  1  0  0  0  0  0999 V2000
   -3.4868    2.4796    1.8891 C   0  0  0  0  0  0  0  0  0  0  0  0
   -2.7065    1.5019    1.4261 C   0  0  0  0  0  0  0  0  0  0  0  0
   -2.5302    0.1803    2.1340 C   0  0  2  0  0  0  0  0  0  0  0  0
   -1.1256   -0.0118    2.5509 N   0  0  0  0  0  0  0  0  0  0  0  0
    0.0000   -0.0000    1.7591 C   0  0  0  0  0  0  0  0  0  0  0  0
    0.0000    0.0000    0.0000 S   0  0  0  0  0  0  0  0  0  0  0  0
    1.0822   -0.0000    2.5207 N   0  0  0  0  0  0  0  0  0  0  0  0
    0.6853   -0.0101    3.8204 N   0  0  0  0  0  0  0  0  0  0  0  0
   -0.6292   -0.0230    3.8490 C   0  0  0  0  0  0  0  0  0  0  0  0
   -1.4241   -0.0582    5.0838 C   0  0  0  0  0  0  0  0  0  0  0  0
   -0.9867    0.6899    6.1905 C   0  0  0  0  0  0  0  0  0  0  0  0
   -1.7002    0.6543    7.3868 C   0  0  0  0  0  0  0  0  0  0  0  0
   -2.8608   -0.1176    7.5064 C   0  0  0  0  0  0  0  0  0  0  0  0
   -3.2819   -0.8727    6.4095 C   0  0  0  0  0  0  0  0  0  0  0  0
   -2.5723   -0.8611    5.2076 C   0  0  0  0  0  0  0  0  0  0  0  0
   -5.0262   -2.0770    6.5687 I   0  0  0  0  0  0  0  0  0  0  0  0
   -3.0310   -1.0147    1.3194 C   0  0  0  0  0  0  0  0  0  0  0  0
   -3.6067    3.4197    1.3441 H   0  0  0  0  0  0  0  0  0  0  0  0
   -4.0373    2.3779    2.8306 H   0  0  0  0  0  0  0  0  0  0  0  0
   -2.1611    1.6276    0.4846 H   0  0  0  0  0  0  0  0  0  0  0  0
   -3.1021    0.2337    3.0677 H   0  0  0  0  0  0  0  0  0  0  0  0
    2.3185    0.0621   -0.1875 Au  0  0  0  0  0  0  0  0  0  0  0  0
   -0.0824    1.2912    6.0913 H   0  0  0  0  0  0  0  0  0  0  0  0
   -1.3567    1.2405    8.2424 H   0  0  0  0  0  0  0  0  0  0  0  0
   -3.4224   -0.1337    8.4414 H   0  0  0  0  0  0  0  0  0  0  0  0
   -2.8908   -1.4987    4.3835 H   0  0  0  0  0  0  0  0  0  0  0  0
   -4.0977   -0.8832    1.0868 H   0  0  0  0  0  0  0  0  0  0  0  0
   -2.9046   -1.9499    1.8864 H   0  0  0  0  0  0  0  0  0  0  0  0
   -2.4791   -1.1142    0.3728 H   0  0  0  0  0  0  0  0  0  0  0  0
  1 19  1  0  0  0  0
  2  1  2  0  0  0  0
  2  3  1  0  0  0  0
  3  4  1  0  0  0  0
  3 21  1  1  0  0  0
  4  9  1  0  0  0  0
  5  7  2  0  0  0  0
  5  4  1  0  0  0  0
  6  5  1  0  0  0  0
  7  8  1  0  0  0  0
  8  9  2  0  0  0  0
  9 10  1  0  0  0  0
 10 15  2  0  0  0  0
 10 11  1  0  0  0  0
 11 12  2  0  0  0  0
 12 13  1  0  0  0  0
 12 24  1  0  0  0  0
 13 25  1  0  0  0  0
 14 16  1  0  0  0  0
 14 13  2  0  0  0  0
 15 14  1  0  0  0  0
 17 28  1  0  0  0  0
 17  3  1  0  0  0  0
 18  1  1  0  0  0  0
 20  2  1  0  0  0  0
 22  6  1  0  0  0  0
 23 11  1  0  0  0  0
 26 15  1  0  0  0  0
 27 17  1  0  0  0  0
 29 17  1  0  0  0  0
M  END
