276846925.xyz
 OpenBabel07262113453D
C=CC(n1c(S)nnc1c1cccc(c1)O)C
 30 31  0  0  1  0  0  0  0  0999 V2000
    4.4811   -1.4182    2.0523 C   0  0  0  0  0  0  0  0  0  0  0  0
    3.1988   -1.1650    1.7852 C   0  0  0  0  0  0  0  0  0  0  0  0
    2.5015    0.1675    1.9322 C   0  0  1  0  0  0  0  0  0  0  0  0
    1.1522   -0.0000    2.5115 N   0  0  0  0  0  0  0  0  0  0  0  0
    0.0000    0.0000    1.7590 C   0  0  0  0  0  0  0  0  0  0  0  0
    0.0000    0.0000    0.0000 S   0  0  0  0  0  0  0  0  0  0  0  0
   -1.0599   -0.0071    2.5442 N   0  0  0  0  0  0  0  0  0  0  0  0
   -0.6190   -0.0118    3.8317 N   0  0  0  0  0  0  0  0  0  0  0  0
    0.6975   -0.0224    3.8287 C   0  0  0  0  0  0  0  0  0  0  0  0
    1.4921   -0.0533    5.0659 C   0  0  0  0  0  0  0  0  0  0  0  0
    0.9875    0.6296    6.1892 C   0  0  0  0  0  0  0  0  0  0  0  0
    1.6890    0.5933    7.3916 C   0  0  0  0  0  0  0  0  0  0  0  0
    2.8906   -0.1129    7.4990 C   0  0  0  0  0  0  0  0  0  0  0  0
    3.3865   -0.8043    6.3867 C   0  0  0  0  0  0  0  0  0  0  0  0
    2.6840   -0.7803    5.1761 C   0  0  0  0  0  0  0  0  0  0  0  0
    4.5416   -1.5202    6.4223 O   0  0  0  0  0  0  0  0  0  0  0  0
    3.2977    1.2813    2.6068 C   0  0  0  0  0  0  0  0  0  0  0  0
    5.1538   -0.6611    2.4631 H   0  0  0  0  0  0  0  0  0  0  0  0
    4.9056   -2.4096    1.8769 H   0  0  0  0  0  0  0  0  0  0  0  0
    2.5600   -1.9578    1.3795 H   0  0  0  0  0  0  0  0  0  0  0  0
    2.2900    0.5093    0.9036 H   0  0  0  0  0  0  0  0  0  0  0  0
   -2.3006    0.2497   -0.1987 Au  0  0  0  0  0  0  0  0  0  0  0  0
    0.0479    1.1740    6.0976 H   0  0  0  0  0  0  0  0  0  0  0  0
    1.3011    1.1264    8.2628 H   0  0  0  0  0  0  0  0  0  0  0  0
    3.4408   -0.1323    8.4448 H   0  0  0  0  0  0  0  0  0  0  0  0
    3.0832   -1.3502    4.3394 H   0  0  0  0  0  0  0  0  0  0  0  0
    4.9135   -1.4841    7.3130 H   0  0  0  0  0  0  0  0  0  0  0  0
    3.6270    1.0104    3.6175 H   0  0  0  0  0  0  0  0  0  0  0  0
    2.6840    2.1909    2.6728 H   0  0  0  0  0  0  0  0  0  0  0  0
    4.1866    1.5115    2.0018 H   0  0  0  0  0  0  0  0  0  0  0  0
  1 18  1  0  0  0  0
  2  3  1  0  0  0  0
  2  1  2  0  0  0  0
  3 21  1  6  0  0  0
  3  4  1  0  0  0  0
  3 17  1  0  0  0  0
  4  9  1  0  0  0  0
  5  4  1  0  0  0  0
  5  7  2  0  0  0  0
  6  5  1  0  0  0  0
  7  8  1  0  0  0  0
  9  8  2  0  0  0  0
  9 10  1  0  0  0  0
 10 15  2  0  0  0  0
 10 11  1  0  0  0  0
 11 12  2  0  0  0  0
 12 13  1  0  0  0  0
 12 24  1  0  0  0  0
 13 25  1  0  0  0  0
 14 16  1  0  0  0  0
 14 13  2  0  0  0  0
 15 14  1  0  0  0  0
 16 27  1  0  0  0  0
 17 29  1  0  0  0  0
 17 28  1  0  0  0  0
 19  1  1  0  0  0  0
 20  2  1  0  0  0  0
 22  6  1  0  0  0  0
 23 11  1  0  0  0  0
 26 15  1  0  0  0  0
 30 17  1  0  0  0  0
M  END
