276884075.xyz
 OpenBabel07262113453D
NC1CCC(C1)S
 18 18  0  0  1  0  0  0  0  0999 V2000
   -0.3871   -2.7172    4.3992 N   0  0  0  0  0  0  0  0  0  0  0  0
    0.2367   -1.9155    3.3623 C   0  0  2  0  0  0  0  0  0  0  0  0
    1.2267   -0.8101    3.7812 C   0  0  0  0  0  0  0  0  0  0  0  0
    1.4052   -0.0000    2.4941 C   0  0  0  0  0  0  0  0  0  0  0  0
    0.0000   -0.0000    1.8343 C   0  0  2  0  0  0  0  0  0  0  0  0
   -0.7923   -1.1416    2.5222 C   0  0  0  0  0  0  0  0  0  0  0  0
    0.0000    0.0000    0.0000 S   0  0  0  0  0  0  0  0  0  0  0  0
   -0.8561   -2.1109    5.0750 H   0  0  0  0  0  0  0  0  0  0  0  0
    0.3179   -3.2373    4.9218 H   0  0  0  0  0  0  0  0  0  0  0  0
    0.7767   -2.6099    2.6910 H   0  0  0  0  0  0  0  0  0  0  0  0
    0.7610   -0.1972    4.5752 H   0  0  0  0  0  0  0  0  0  0  0  0
    2.1737   -1.2064    4.1819 H   0  0  0  0  0  0  0  0  0  0  0  0
    1.7934    1.0172    2.6485 H   0  0  0  0  0  0  0  0  0  0  0  0
    2.1137   -0.5173    1.8285 H   0  0  0  0  0  0  0  0  0  0  0  0
   -0.4999    0.9656    2.0234 H   0  0  0  0  0  0  0  0  0  0  0  0
   -1.5475   -0.7119    3.2032 H   0  0  0  0  0  0  0  0  0  0  0  0
   -1.3276   -1.7810    1.8088 H   0  0  0  0  0  0  0  0  0  0  0  0
    0.9758   -2.0113   -0.5250 Au  0  0  0  0  0  0  0  0  0  0  0  0
  1  9  1  0  0  0  0
  1  8  1  0  0  0  0
  2 10  1  6  0  0  0
  2  3  1  0  0  0  0
  2  1  1  0  0  0  0
  3 12  1  0  0  0  0
  3 11  1  0  0  0  0
  4 13  1  0  0  0  0
  4  3  1  0  0  0  0
  5 15  1  1  0  0  0
  5  4  1  0  0  0  0
  5  6  1  0  0  0  0
  6 16  1  0  0  0  0
  6  2  1  0  0  0  0
  7  5  1  0  0  0  0
 14  4  1  0  0  0  0
 17  6  1  0  0  0  0
 18  7  1  0  0  0  0
M  END
