276883293.xyz
 OpenBabel07262113453D
SCc1nnn(c1)C(C)(C)C
 24 24  0  0  0  0  0  0  0  0999 V2000
    0.0000    0.0000    0.0000 S   0  0  0  0  0  0  0  0  0  0  0  0
   -0.0000    0.0000    1.8509 C   0  0  0  0  0  0  0  0  0  0  0  0
    1.3432    0.0000    2.4894 C   0  0  0  0  0  0  0  0  0  0  0  0
    2.0264    1.1483    2.7549 N   0  0  0  0  0  0  0  0  0  0  0  0
    3.1786    0.8520    3.2750 N   0  0  0  0  0  0  0  0  0  0  0  0
    3.2712   -0.4857    3.3552 N   0  0  0  0  0  0  0  0  0  0  0  0
    2.1393   -1.0659    2.8764 C   0  0  0  0  0  0  0  0  0  0  0  0
    4.5048   -1.0935    3.9127 C   0  0  0  0  0  0  0  0  0  0  0  0
    4.3681   -2.6172    3.8910 C   0  0  0  0  0  0  0  0  0  0  0  0
    5.6848   -0.6492    3.0368 C   0  0  0  0  0  0  0  0  0  0  0  0
    4.6716   -0.5898    5.3531 C   0  0  0  0  0  0  0  0  0  0  0  0
    0.9785   -2.0051   -0.5281 Au  0  0  0  0  0  0  0  0  0  0  0  0
   -0.6269   -0.8234    2.2172 H   0  0  0  0  0  0  0  0  0  0  0  0
   -0.5058    0.9501    2.0863 H   0  0  0  0  0  0  0  0  0  0  0  0
    1.9824   -2.1374    2.8378 H   0  0  0  0  0  0  0  0  0  0  0  0
    3.5230   -2.9587    4.5075 H   0  0  0  0  0  0  0  0  0  0  0  0
    5.2849   -3.0637    4.3021 H   0  0  0  0  0  0  0  0  0  0  0  0
    4.2390   -2.9985    2.8668 H   0  0  0  0  0  0  0  0  0  0  0  0
    5.5535   -1.0015    2.0023 H   0  0  0  0  0  0  0  0  0  0  0  0
    5.7574    0.4464    3.0217 H   0  0  0  0  0  0  0  0  0  0  0  0
    6.6241   -1.0651    3.4315 H   0  0  0  0  0  0  0  0  0  0  0  0
    5.5923   -1.0029    5.7922 H   0  0  0  0  0  0  0  0  0  0  0  0
    3.8181   -0.9018    5.9744 H   0  0  0  0  0  0  0  0  0  0  0  0
    4.7290    0.5067    5.3693 H   0  0  0  0  0  0  0  0  0  0  0  0
  1  2  1  0  0  0  0
  2 14  1  0  0  0  0
  2 13  1  0  0  0  0
  2  3  1  0  0  0  0
  3  4  2  0  0  0  0
  3  7  1  0  0  0  0
  4  5  1  0  0  0  0
  5  6  1  0  0  0  0
  6  8  1  0  0  0  0
  7  6  1  0  0  0  0
  8 11  1  0  0  0  0
  9  8  1  0  0  0  0
  9 17  1  0  0  0  0
  9 16  1  0  0  0  0
 10 21  1  0  0  0  0
 10  8  1  0  0  0  0
 11 24  1  0  0  0  0
 11 22  1  0  0  0  0
 11 23  1  0  0  0  0
 12  1  1  0  0  0  0
 15  7  1  0  0  0  0
 18  9  1  0  0  0  0
 19 10  1  0  0  0  0
 20 10  1  0  0  0  0
M  RAD  2   5   2   7   2
M  END
