276883264.xyz
 OpenBabel07262113453D
COC(=O)c1occc1CS
 19 19  0  0  0  0  0  0  0  0999 V2000
    0.1688    4.1809    2.8969 C   0  0  0  0  0  0  0  0  0  0  0  0
    0.5517    2.8170    2.7338 O   0  0  0  0  0  0  0  0  0  0  0  0
    1.7607    2.4779    3.2442 C   0  0  0  0  0  0  0  0  0  0  0  0
    2.4922    3.2633    3.7958 O   0  0  0  0  0  0  0  0  0  0  0  0
    2.0536    1.0585    3.0186 C   0  0  0  0  0  0  0  0  0  0  0  0
    3.2861    0.6423    3.4289 O   0  0  0  0  0  0  0  0  0  0  0  0
    3.3942   -0.6652    3.1294 C   0  0  0  0  0  0  0  0  0  0  0  0
    2.2519   -1.1202    2.5294 C   0  0  0  0  0  0  0  0  0  0  0  0
    1.3622    0.0000    2.4561 C   0  0  0  0  0  0  0  0  0  0  0  0
    0.0000    0.0000    1.8502 C   0  0  0  0  0  0  0  0  0  0  0  0
    0.0000    0.0000    0.0000 S   0  0  0  0  0  0  0  0  0  0  0  0
    0.0999    4.4428    3.9633 H   0  0  0  0  0  0  0  0  0  0  0  0
   -0.8103    4.2807    2.4133 H   0  0  0  0  0  0  0  0  0  0  0  0
    0.9013    4.8511    2.4225 H   0  0  0  0  0  0  0  0  0  0  0  0
    4.3333   -1.1426    3.3979 H   0  0  0  0  0  0  0  0  0  0  0  0
    2.0567   -2.1275    2.1686 H   0  0  0  0  0  0  0  0  0  0  0  0
   -0.5213   -0.9416    2.0888 H   0  0  0  0  0  0  0  0  0  0  0  0
   -0.6015    0.8358    2.2201 H   0  0  0  0  0  0  0  0  0  0  0  0
    0.9795    2.0192   -0.4804 Au  0  0  0  0  0  0  0  0  0  0  0  0
  1 12  1  0  0  0  0
  2  1  1  0  0  0  0
  2  3  1  0  0  0  0
  3  4  2  0  0  0  0
  5  3  1  0  0  0  0
  5  6  1  0  0  0  0
  7 15  1  0  0  0  0
  7  6  1  0  0  0  0
  8  7  2  0  0  0  0
  9  8  1  0  0  0  0
  9  5  2  0  0  0  0
 10 17  1  0  0  0  0
 10 18  1  0  0  0  0
 10  9  1  0  0  0  0
 11 10  1  0  0  0  0
 13  1  1  0  0  0  0
 14  1  1  0  0  0  0
 16  8  1  0  0  0  0
 19 11  1  0  0  0  0
M  END
