277309297.xyz
 OpenBabel07262113453D
Fc1cc(S)c2c(c1)sc(n2)C(C)C
 24 25  0  0  1  0  0  0  0  0999 V2000
   -2.5648    0.0037    4.3548 F   0  0  0  0  0  0  0  0  0  0  0  0
   -1.3424    0.0025    3.8045 C   0  0  0  0  0  0  0  0  0  0  0  0
   -1.2481    0.0023    2.4106 C   0  0  0  0  0  0  0  0  0  0  0  0
   -0.0000   -0.0000    1.7698 C   0  0  0  0  0  0  0  0  0  0  0  0
    0.0000    0.0000    0.0000 S   0  0  0  0  0  0  0  0  0  0  0  0
    1.1548   -0.0000    2.6009 C   0  0  0  0  0  0  0  0  0  0  0  0
    1.0097    0.0041    4.0116 C   0  0  1  0  0  0  0  0  0  0  0  0
   -0.2353    0.0026    4.6452 C   0  0  0  0  0  0  0  0  0  0  0  0
    2.5928   -0.0019    4.7600 S   0  0  0  0  0  0  0  0  0  0  0  0
    3.3281   -0.0046    3.1480 C   0  0  0  0  0  0  0  0  0  0  0  0
    2.4714   -0.0037    2.1779 N   0  0  0  0  0  0  0  0  0  0  0  0
    4.8203    0.0713    2.9685 C   0  0  0  0  0  0  0  0  0  0  0  0
    5.2870    1.5367    3.0262 C   0  0  0  0  0  0  0  0  0  0  0  0
    5.5801   -0.8071    3.9685 C   0  0  0  0  0  0  0  0  0  0  0  0
   -2.1695    0.0043    1.8265 H   0  0  0  0  0  0  0  0  0  0  0  0
    2.2981    0.0231   -0.4060 Au  0  0  0  0  0  0  0  0  0  0  0  0
   -0.3581    0.0033    5.7278 H   0  0  0  0  0  0  0  0  0  0  0  0
    5.0022   -0.3085    1.9492 H   0  0  0  0  0  0  0  0  0  0  0  0
    6.3681    1.6032    2.8272 H   0  0  0  0  0  0  0  0  0  0  0  0
    5.0942    1.9683    4.0212 H   0  0  0  0  0  0  0  0  0  0  0  0
    4.7572    2.1487    2.2812 H   0  0  0  0  0  0  0  0  0  0  0  0
    5.4303   -0.4549    5.0025 H   0  0  0  0  0  0  0  0  0  0  0  0
    6.6607   -0.7716    3.7624 H   0  0  0  0  0  0  0  0  0  0  0  0
    5.2525   -1.8562    3.9164 H   0  0  0  0  0  0  0  0  0  0  0  0
  2  1  1  0  0  0  0
  2  8  2  0  0  0  0
  3  2  1  0  0  0  0
  4  3  2  0  0  0  0
  4  6  1  0  0  0  0
  5  4  1  0  0  0  0
  7  6  1  6  0  0  0
  7  8  1  0  0  0  0
  7  9  1  0  0  0  0
  8 17  1  0  0  0  0
 10  9  1  0  0  0  0
 11  6  2  0  0  0  0
 11 10  2  0  0  0  0
 12 13  1  0  0  0  0
 12 10  1  0  0  0  0
 12 14  1  0  0  0  0
 13 20  1  0  0  0  0
 14 22  1  0  0  0  0
 15  3  1  0  0  0  0
 16  5  1  0  0  0  0
 18 12  1  0  0  0  0
 19 13  1  0  0  0  0
 21 13  1  0  0  0  0
 23 14  1  0  0  0  0
 24 14  1  0  0  0  0
M  RAD  1   7   2
M  END
