2855995.xyz
 OpenBabel07262113453D
Sc1nnc(n1c1ccccc1F)c1cccnc1
 28 30  0  0  1  0  0  0  0  0999 V2000
    0.0000    0.0000    0.0000 S   0  0  0  0  0  0  0  0  0  0  0  0
    0.0000   -0.0000    1.7544 C   0  0  0  0  0  0  0  0  0  0  0  0
   -1.0397    0.0155    2.5641 N   0  0  0  0  0  0  0  0  0  0  0  0
   -0.5766    0.0326    3.8472 N   0  0  0  0  0  0  0  0  0  0  0  0
    0.7356    0.0263    3.8220 C   0  0  0  0  0  0  0  0  0  0  0  0
    1.1648    0.0000    2.4958 N   0  0  0  0  0  0  0  0  0  0  0  0
    2.4816    0.1264    1.9829 C   0  0  0  0  0  0  0  0  0  0  0  0
    3.0534   -0.8791    1.1967 C   0  0  0  0  0  0  0  0  0  0  0  0
    4.3477   -0.7270    0.6970 C   0  0  0  0  0  0  0  0  0  0  0  0
    5.0789    0.4282    0.9915 C   0  0  0  0  0  0  0  0  0  0  0  0
    4.5180    1.4389    1.7762 C   0  0  0  0  0  0  0  0  0  0  0  0
    3.2224    1.2833    2.2564 C   0  0  0  0  0  0  0  0  0  0  0  0
    2.6712    2.2408    3.0045 F   0  0  0  0  0  0  0  0  0  0  0  0
    1.6009    0.0423    5.0019 C   0  0  2  0  0  0  0  0  0  0  0  0
    2.8862   -0.5193    5.0352 C   0  0  0  0  0  0  0  0  0  0  0  0
    3.6163   -0.4569    6.2212 C   0  0  0  0  0  0  0  0  0  0  0  0
    3.0347    0.1514    7.3363 C   0  0  0  0  0  0  0  0  0  0  0  0
    1.8057    0.6766    7.3235 N   0  0  0  0  0  0  0  0  0  0  0  0
    1.1126    0.6245    6.1900 C   0  0  0  0  0  0  0  0  0  0  0  0
   -2.3096    0.0884   -0.2115 Au  0  0  0  0  0  0  0  0  0  0  0  0
    2.4673   -1.7745    0.9842 H   0  0  0  0  0  0  0  0  0  0  0  0
    4.7869   -1.5138    0.0811 H   0  0  0  0  0  0  0  0  0  0  0  0
    6.0941    0.5472    0.6075 H   0  0  0  0  0  0  0  0  0  0  0  0
    5.0630    2.3525    2.0192 H   0  0  0  0  0  0  0  0  0  0  0  0
    3.3064   -1.0123    4.1581 H   0  0  0  0  0  0  0  0  0  0  0  0
    4.6191   -0.8845    6.2842 H   0  0  0  0  0  0  0  0  0  0  0  0
    3.5847    0.2128    8.2825 H   0  0  0  0  0  0  0  0  0  0  0  0
    0.1083    1.0593    6.1885 H   0  0  0  0  0  0  0  0  0  0  0  0
  1  2  1  0  0  0  0
  2  6  1  0  0  0  0
  2  3  2  0  0  0  0
  3  4  1  0  0  0  0
  5  4  2  0  0  0  0
  6  5  1  0  0  0  0
  7 12  1  0  0  0  0
  7  6  1  0  0  0  0
  8  7  2  0  0  0  0
  9 10  2  0  0  0  0
  9  8  1  0  0  0  0
 10 11  1  0  0  0  0
 11 24  1  0  0  0  0
 11 12  2  0  0  0  0
 12 13  1  0  0  0  0
 14  5  1  1  0  0  0
 14 15  1  0  0  0  0
 14 19  1  0  0  0  0
 15 16  2  0  0  0  0
 16 26  1  0  0  0  0
 16 17  1  0  0  0  0
 17 27  1  0  0  0  0
 18 17  2  0  0  0  0
 19 18  2  0  0  0  0
 20  1  1  0  0  0  0
 21  8  1  0  0  0  0
 22  9  1  0  0  0  0
 23 10  1  0  0  0  0
 25 15  1  0  0  0  0
 28 19  1  0  0  0  0
M  RAD  1  14   2
M  END
