2857809.xyz
 OpenBabel07262113453D
Sc1nnc2c(n1CCc1ccccc1)nc1c2cccc1
 36 39  0  0  1  0  0  0  0  0999 V2000
    0.0000    0.0000    0.0000 S   0  0  0  0  0  0  0  0  0  0  0  0
   -0.0000   -0.0000    1.7625 C   0  0  0  0  0  0  0  0  0  0  0  0
    1.1616    0.0000    2.4114 N   0  0  0  0  0  0  0  0  0  0  0  0
    1.2202    0.0185    3.7584 N   0  0  0  0  0  0  0  0  0  0  0  0
    0.0952    0.0510    4.4169 C   0  0  0  0  0  0  0  0  0  0  0  0
   -1.2155    0.0565    3.7622 C   0  0  0  0  0  0  0  0  0  0  0  0
   -1.2203    0.0053    2.3911 N   0  0  0  0  0  0  0  0  0  0  0  0
   -2.5105    0.0356    1.6913 C   0  0  0  0  0  0  0  0  0  0  0  0
   -2.9693    1.4709    1.3973 C   0  0  0  0  0  0  0  0  0  0  0  0
   -4.2957    1.4717    0.6792 C   0  0  0  0  0  0  0  0  0  0  0  0
   -5.4975    1.4307    1.4016 C   0  0  0  0  0  0  0  0  0  0  0  0
   -6.7259    1.3793    0.7388 C   0  0  0  0  0  0  0  0  0  0  0  0
   -6.7691    1.3645   -0.6584 C   0  0  0  0  0  0  0  0  0  0  0  0
   -5.5774    1.4007   -1.3878 C   0  0  0  0  0  0  0  0  0  0  0  0
   -4.3503    1.4518   -0.7221 C   0  0  0  0  0  0  0  0  0  0  0  0
   -2.2382    0.1044    4.5655 N   0  0  0  0  0  0  0  0  0  0  0  0
   -1.6647    0.1270    5.8546 C   0  0  0  0  0  0  0  0  0  0  0  0
   -0.2350    0.0954    5.8273 C   0  0  2  0  0  0  0  0  0  0  0  0
    0.5125    0.1142    7.0069 C   0  0  0  0  0  0  0  0  0  0  0  0
   -0.1738    0.1634    8.2221 C   0  0  0  0  0  0  0  0  0  0  0  0
   -1.5801    0.1939    8.2504 C   0  0  0  0  0  0  0  0  0  0  0  0
   -2.3392    0.1767    7.0760 C   0  0  0  0  0  0  0  0  0  0  0  0
    2.3284   -0.0582   -0.1876 Au  0  0  0  0  0  0  0  0  0  0  0  0
   -2.4152   -0.5478    0.7655 H   0  0  0  0  0  0  0  0  0  0  0  0
   -3.2318   -0.4610    2.3531 H   0  0  0  0  0  0  0  0  0  0  0  0
   -2.2031    1.9735    0.7873 H   0  0  0  0  0  0  0  0  0  0  0  0
   -3.0479    2.0083    2.3545 H   0  0  0  0  0  0  0  0  0  0  0  0
   -5.4658    1.4420    2.4948 H   0  0  0  0  0  0  0  0  0  0  0  0
   -7.6537    1.3531    1.3155 H   0  0  0  0  0  0  0  0  0  0  0  0
   -7.7296    1.3270   -1.1776 H   0  0  0  0  0  0  0  0  0  0  0  0
   -5.6033    1.3917   -2.4802 H   0  0  0  0  0  0  0  0  0  0  0  0
   -3.4191    1.4805   -1.2953 H   0  0  0  0  0  0  0  0  0  0  0  0
    1.6037    0.0910    6.9710 H   0  0  0  0  0  0  0  0  0  0  0  0
    0.3837    0.1784    9.1612 H   0  0  0  0  0  0  0  0  0  0  0  0
   -2.0918    0.2319    9.2155 H   0  0  0  0  0  0  0  0  0  0  0  0
   -3.4301    0.2006    7.0994 H   0  0  0  0  0  0  0  0  0  0  0  0
  1  2  1  0  0  0  0
  2  7  1  0  0  0  0
  2  3  2  0  0  0  0
  3  4  1  0  0  0  0
  4  5  2  0  0  0  0
  6  5  1  0  0  0  0
  6 16  2  0  0  0  0
  7  6  1  0  0  0  0
  8 25  1  0  0  0  0
  8  7  1  0  0  0  0
  9  8  1  0  0  0  0
  9 27  1  0  0  0  0
 10  9  1  0  0  0  0
 10 11  2  0  0  0  0
 11 28  1  0  0  0  0
 12 29  1  0  0  0  0
 12 11  1  0  0  0  0
 13 12  2  0  0  0  0
 14 15  2  0  0  0  0
 14 13  1  0  0  0  0
 15 10  1  0  0  0  0
 16 17  2  0  0  0  0
 17 22  1  0  0  0  0
 18  5  1  6  0  0  0
 18 17  1  0  0  0  0
 18 19  1  0  0  0  0
 19 20  2  0  0  0  0
 20 21  1  0  0  0  0
 20 34  1  0  0  0  0
 21 35  1  0  0  0  0
 22 36  1  0  0  0  0
 22 21  2  0  0  0  0
 23  1  1  0  0  0  0
 24  8  1  0  0  0  0
 26  9  1  0  0  0  0
 30 13  1  0  0  0  0
 31 14  1  0  0  0  0
 32 15  1  0  0  0  0
 33 19  1  0  0  0  0
M  RAD  1  18   2
M  END
