2861184.xyz
 OpenBabel07262113453D
COCCn1c(S)nc2c(c1=O)c1CCCc1s2
 32 34  0  0  1  0  0  0  0  0999 V2000
   -4.7183    2.5282    0.2188 C   0  0  0  0  0  0  0  0  0  0  0  0
   -4.1341    1.2979    0.5508 O   0  0  0  0  0  0  0  0  0  0  0  0
   -2.9679    1.4180    1.3197 C   0  0  0  0  0  0  0  0  0  0  0  0
   -2.4825    0.0056    1.6236 C   0  0  0  0  0  0  0  0  0  0  0  0
   -1.2349    0.0063    2.3908 N   0  0  0  0  0  0  0  0  0  0  0  0
   -0.0000   -0.0000    1.7787 C   0  0  0  0  0  0  0  0  0  0  0  0
    0.0000    0.0000    0.0000 S   0  0  0  0  0  0  0  0  0  0  0  0
    1.1316   -0.0000    2.4345 N   0  0  0  0  0  0  0  0  0  0  0  0
    1.0516    0.0117    3.7819 C   0  0  0  0  0  0  0  0  0  0  0  0
   -0.1322    0.0427    4.5246 C   0  0  2  0  0  0  0  0  0  0  0  0
   -1.3898    0.0571    3.8178 C   0  0  0  0  0  0  0  0  0  0  0  0
   -2.5047    0.1068    4.3096 O   0  0  0  0  0  0  0  0  0  0  0  0
    0.1145    0.0780    5.9315 C   0  0  0  0  0  0  0  0  0  0  0  0
   -0.7220    0.0599    7.1810 C   0  0  0  0  0  0  0  0  0  0  0  0
    0.3229    0.3909    8.2858 C   0  0  0  0  0  0  0  0  0  0  0  0
    1.7247    0.0306    7.7071 C   0  0  0  0  0  0  0  0  0  0  0  0
    1.4487    0.0689    6.2315 C   0  0  0  0  0  0  0  0  0  0  0  0
    2.4716    0.0150    4.8170 S   0  0  0  0  0  0  0  0  0  0  0  0
   -5.6197    2.3236   -0.3767 H   0  0  0  0  0  0  0  0  0  0  0  0
   -4.0343    3.1627   -0.3810 H   0  0  0  0  0  0  0  0  0  0  0  0
   -5.0120    3.1031    1.1203 H   0  0  0  0  0  0  0  0  0  0  0  0
   -3.1646    1.9497    2.2719 H   0  0  0  0  0  0  0  0  0  0  0  0
   -2.1833    1.9795    0.7717 H   0  0  0  0  0  0  0  0  0  0  0  0
   -2.3352   -0.5509    0.6882 H   0  0  0  0  0  0  0  0  0  0  0  0
   -3.2380   -0.5093    2.2286 H   0  0  0  0  0  0  0  0  0  0  0  0
    2.2905   -0.0498   -0.3256 Au  0  0  0  0  0  0  0  0  0  0  0  0
   -1.5574    0.7748    7.1495 H   0  0  0  0  0  0  0  0  0  0  0  0
   -1.1741   -0.9379    7.3236 H   0  0  0  0  0  0  0  0  0  0  0  0
    0.1180   -0.1270    9.2341 H   0  0  0  0  0  0  0  0  0  0  0  0
    0.2945    1.4724    8.4916 H   0  0  0  0  0  0  0  0  0  0  0  0
    2.0528   -0.9777    8.0209 H   0  0  0  0  0  0  0  0  0  0  0  0
    2.5069    0.7348    8.0330 H   0  0  0  0  0  0  0  0  0  0  0  0
  1  2  1  0  0  0  0
  1 21  1  0  0  0  0
  2  3  1  0  0  0  0
  3  4  1  0  0  0  0
  3 22  1  0  0  0  0
  4 25  1  0  0  0  0
  4  5  1  0  0  0  0
  5 11  1  0  0  0  0
  6  5  1  0  0  0  0
  6  8  2  0  0  0  0
  7  6  1  0  0  0  0
  8  9  2  0  0  0  0
  9 18  1  0  0  0  0
 10  9  1  6  0  0  0
 10 13  1  0  0  0  0
 11 12  2  0  0  0  0
 11 10  1  0  0  0  0
 13 17  2  0  0  0  0
 13 14  1  0  0  0  0
 14 28  1  0  0  0  0
 14 15  1  0  0  0  0
 15 30  1  0  0  0  0
 15 29  1  0  0  0  0
 16 31  1  0  0  0  0
 16 32  1  0  0  0  0
 16 15  1  0  0  0  0
 17 16  1  0  0  0  0
 18 17  1  0  0  0  0
 19  1  1  0  0  0  0
 20  1  1  0  0  0  0
 23  3  1  0  0  0  0
 24  4  1  0  0  0  0
 26  7  1  0  0  0  0
 27 14  1  0  0  0  0
M  RAD  1  10   2
M  END
