299980826.xyz
 OpenBabel07262113453D
COc1ccc(cc1)/C=C\1/N=C(N(C1=O)c1ccccc1)S
 36 38  0  0  0  0  0  0  0  0999 V2000
    0.1962   -0.3213   11.2767 C   0  0  0  0  0  0  0  0  0  0  0  0
    1.3841   -0.2501   10.5185 O   0  0  0  0  0  0  0  0  0  0  0  0
    1.3047   -0.2085    9.1703 C   0  0  0  0  0  0  0  0  0  0  0  0
    2.5279   -0.1372    8.4778 C   0  0  0  0  0  0  0  0  0  0  0  0
    2.5373   -0.0911    7.0949 C   0  0  0  0  0  0  0  0  0  0  0  0
    1.3381   -0.1136    6.3366 C   0  0  0  0  0  0  0  0  0  0  0  0
    0.1218   -0.1857    7.0506 C   0  0  0  0  0  0  0  0  0  0  0  0
    0.1031   -0.2322    8.4425 C   0  0  0  0  0  0  0  0  0  0  0  0
    1.4680   -0.0605    4.8957 C   0  0  0  0  0  0  0  0  0  0  0  0
    0.5798   -0.0572    3.8564 C   0  0  0  0  0  0  0  0  0  0  0  0
    1.0395   -0.0000    2.5315 N   0  0  0  0  0  0  0  0  0  0  0  0
    0.0000   -0.0000    1.7563 C   0  0  0  0  0  0  0  0  0  0  0  0
   -1.2126   -0.0497    2.4531 N   0  0  0  0  0  0  0  0  0  0  0  0
   -0.9115   -0.1069    3.8338 C   0  0  0  0  0  0  0  0  0  0  0  0
   -1.7504   -0.1785    4.7108 O   0  0  0  0  0  0  0  0  0  0  0  0
   -2.5280   -0.0352    1.9179 C   0  0  0  0  0  0  0  0  0  0  0  0
   -3.4561   -0.9974    2.3352 C   0  0  0  0  0  0  0  0  0  0  0  0
   -4.7504   -0.9781    1.8149 C   0  0  0  0  0  0  0  0  0  0  0  0
   -5.1211   -0.0125    0.8740 C   0  0  0  0  0  0  0  0  0  0  0  0
   -4.1937    0.9490    0.4651 C   0  0  0  0  0  0  0  0  0  0  0  0
   -2.9021    0.9504    0.9951 C   0  0  0  0  0  0  0  0  0  0  0  0
    0.0000    0.0000    0.0000 S   0  0  0  0  0  0  0  0  0  0  0  0
   -0.3797   -1.2353   11.0480 H   0  0  0  0  0  0  0  0  0  0  0  0
    0.5000   -0.3438   12.3314 H   0  0  0  0  0  0  0  0  0  0  0  0
   -0.4499    0.5579   11.1065 H   0  0  0  0  0  0  0  0  0  0  0  0
    3.4525   -0.1195    9.0573 H   0  0  0  0  0  0  0  0  0  0  0  0
    3.4943   -0.0354    6.5699 H   0  0  0  0  0  0  0  0  0  0  0  0
   -0.8171   -0.2053    6.4989 H   0  0  0  0  0  0  0  0  0  0  0  0
   -0.8583   -0.2872    8.9526 H   0  0  0  0  0  0  0  0  0  0  0  0
    2.5035   -0.0094    4.5427 H   0  0  0  0  0  0  0  0  0  0  0  0
   -3.1600   -1.7469    3.0684 H   0  0  0  0  0  0  0  0  0  0  0  0
   -5.4728   -1.7291    2.1426 H   0  0  0  0  0  0  0  0  0  0  0  0
   -6.1337   -0.0067    0.4642 H   0  0  0  0  0  0  0  0  0  0  0  0
   -4.4780    1.7134   -0.2615 H   0  0  0  0  0  0  0  0  0  0  0  0
   -2.1829    1.7152    0.6992 H   0  0  0  0  0  0  0  0  0  0  0  0
    2.2998   -0.1008   -0.2651 Au  0  0  0  0  0  0  0  0  0  0  0  0
  1 24  1  0  0  0  0
  2  1  1  0  0  0  0
  3  2  1  0  0  0  0
  4 26  1  0  0  0  0
  4  3  1  0  0  0  0
  5  4  2  0  0  0  0
  6  7  2  0  0  0  0
  6  5  1  0  0  0  0
  7  8  1  0  0  0  0
  8 29  1  0  0  0  0
  8  3  2  0  0  0  0
  9  6  1  0  0  0  0
 10  9  1  0  0  0  0
 11 10  2  0  0  0  0
 12 13  1  0  0  0  0
 12 11  2  0  0  0  0
 13 14  1  0  0  0  0
 14 10  1  0  0  0  0
 14 15  2  0  0  0  0
 16 17  1  0  0  0  0
 16 13  1  0  0  0  0
 17 31  1  0  0  0  0
 18 32  1  0  0  0  0
 18 17  2  0  0  0  0
 19 18  1  0  0  0  0
 20 19  2  0  0  0  0
 20 21  1  0  0  0  0
 21 16  2  0  0  0  0
 22 12  1  0  0  0  0
 23  1  1  0  0  0  0
 25  1  1  0  0  0  0
 27  5  1  0  0  0  0
 28  7  1  0  0  0  0
 30  9  1  0  0  0  0
 33 19  1  0  0  0  0
 34 20  1  0  0  0  0
 35 21  1  0  0  0  0
 36 22  1  0  0  0  0
M  RAD  1   9   2
M  END
