300325359.xyz
 OpenBabel07262113453D
SC1=NC(=O)C(=Cc2ccc(o2)c2ccccc2Cl)S1
 28 30  0  0  0  0  0  0  0  0999 V2000
    0.0000    0.0000    0.0000 S   0  0  0  0  0  0  0  0  0  0  0  0
    0.0000   -0.0000    1.7407 C   0  0  0  0  0  0  0  0  0  0  0  0
   -1.0380   -0.0001    2.5078 N   0  0  0  0  0  0  0  0  0  0  0  0
   -0.7159   -0.0010    3.8740 C   0  0  0  0  0  0  0  0  0  0  0  0
   -1.5498   -0.0035    4.7580 O   0  0  0  0  0  0  0  0  0  0  0  0
    0.7675    0.0011    4.0960 C   0  0  0  0  0  0  0  0  0  0  0  0
    1.4622    0.0045    5.2685 C   0  0  0  0  0  0  0  0  0  0  0  0
    1.0202    0.0065    6.6265 C   0  0  0  0  0  0  0  0  0  0  0  0
   -0.1832   -0.0075    7.3195 C   0  0  0  0  0  0  0  0  0  0  0  0
    0.1449   -0.0029    8.6959 C   0  0  0  0  0  0  0  0  0  0  0  0
    1.5278    0.0118    8.7820 C   0  0  0  0  0  0  0  0  0  0  0  0
    2.0508    0.0206    7.5386 O   0  0  0  0  0  0  0  0  0  0  0  0
    2.4104    0.0491    9.9450 C   0  0  0  0  0  0  0  0  0  0  0  0
    1.9266    0.6604   11.1219 C   0  0  0  0  0  0  0  0  0  0  0  0
    2.6878    0.7243   12.2841 C   0  0  0  0  0  0  0  0  0  0  0  0
    3.9751    0.1795   12.3001 C   0  0  0  0  0  0  0  0  0  0  0  0
    4.4811   -0.4331   11.1547 C   0  0  0  0  0  0  0  0  0  0  0  0
    3.7098   -0.5052    9.9908 C   0  0  0  0  0  0  0  0  0  0  0  0
    4.4042   -1.3504    8.6292 Cl  0  0  0  0  0  0  0  0  0  0  0  0
    1.5969    0.0000    2.5297 S   0  0  0  0  0  0  0  0  0  0  0  0
   -2.3009   -0.0020   -0.2969 Au  0  0  0  0  0  0  0  0  0  0  0  0
    2.5549    0.0053    5.1995 H   0  0  0  0  0  0  0  0  0  0  0  0
   -1.1597   -0.0277    6.8490 H   0  0  0  0  0  0  0  0  0  0  0  0
   -0.5485   -0.0333    9.5326 H   0  0  0  0  0  0  0  0  0  0  0  0
    0.9341    1.1135   11.0996 H   0  0  0  0  0  0  0  0  0  0  0  0
    2.2819    1.2107   13.1734 H   0  0  0  0  0  0  0  0  0  0  0  0
    4.5881    0.2291   13.2026 H   0  0  0  0  0  0  0  0  0  0  0  0
    5.4785   -0.8746   11.1497 H   0  0  0  0  0  0  0  0  0  0  0  0
  1  2  1  0  0  0  0
  2  3  2  0  0  0  0
  2 20  1  0  0  0  0
  3  4  2  0  0  0  0
  4  6  1  0  0  0  0
  4  5  2  0  0  0  0
  6  7  2  0  0  0  0
  7  8  1  0  0  0  0
  8  9  2  0  0  0  0
  8 12  1  0  0  0  0
  9 10  1  0  0  0  0
 10 11  2  0  0  0  0
 10 24  1  0  0  0  0
 11 13  1  0  0  0  0
 12 11  1  0  0  0  0
 13 18  2  0  0  0  0
 13 14  1  0  0  0  0
 14 15  2  0  0  0  0
 15 16  1  0  0  0  0
 15 26  1  0  0  0  0
 16 27  1  0  0  0  0
 17 16  2  0  0  0  0
 18 17  1  0  0  0  0
 19 18  1  0  0  0  0
 20  6  1  0  0  0  0
 21  1  1  0  0  0  0
 22  7  1  0  0  0  0
 23  9  1  0  0  0  0
 25 14  1  0  0  0  0
 28 17  1  0  0  0  0
M  END
