30155304.xyz
 OpenBabel07262113453D
N#Cc1c(S)nc(cc1c1ccc(cc1)OC)c1ccc(c(c1)C)C
 43 45  0  0  1  0  0  0  0  0999 V2000
   -3.4285   -0.1363    1.0266 N   0  0  0  0  0  0  0  0  0  0  0  0
   -2.4613   -0.0783    1.6683 C   0  0  0  0  0  0  0  0  0  0  0  0
   -1.2592   -0.0078    2.4385 C   0  0  2  0  0  0  0  0  0  0  0  0
   -0.0000   -0.0000    1.7720 C   0  0  0  0  0  0  0  0  0  0  0  0
    0.0000    0.0000    0.0000 S   0  0  0  0  0  0  0  0  0  0  0  0
    1.1507   -0.0000    2.4325 N   0  0  0  0  0  0  0  0  0  0  0  0
    1.1607   -0.0067    3.7754 C   0  0  0  0  0  0  0  0  0  0  0  0
   -0.0336    0.0128    4.5099 C   0  0  0  0  0  0  0  0  0  0  0  0
   -1.2712    0.0157    3.8547 C   0  0  0  0  0  0  0  0  0  0  0  0
   -2.5230    0.0372    4.6431 C   0  0  0  0  0  0  0  0  0  0  0  0
   -2.6420   -0.7572    5.8022 C   0  0  0  0  0  0  0  0  0  0  0  0
   -3.7975   -0.7427    6.5694 C   0  0  0  0  0  0  0  0  0  0  0  0
   -4.8778    0.0815    6.2067 C   0  0  0  0  0  0  0  0  0  0  0  0
   -4.7726    0.8869    5.0627 C   0  0  0  0  0  0  0  0  0  0  0  0
   -3.6079    0.8550    4.2947 C   0  0  0  0  0  0  0  0  0  0  0  0
   -5.9631    0.0323    7.0113 O   0  0  0  0  0  0  0  0  0  0  0  0
   -7.0916    0.8163    6.6907 C   0  0  0  0  0  0  0  0  0  0  0  0
    2.4916   -0.0077    4.4298 C   0  0  0  0  0  0  0  0  0  0  0  0
    3.6332    0.3574    3.7006 C   0  0  0  0  0  0  0  0  0  0  0  0
    4.8839    0.3655    4.3127 C   0  0  0  0  0  0  0  0  0  0  0  0
    5.0471    0.0061    5.6574 C   0  0  0  0  0  0  0  0  0  0  0  0
    3.9057   -0.3725    6.4011 C   0  0  0  0  0  0  0  0  0  0  0  0
    2.6551   -0.3704    5.7775 C   0  0  0  0  0  0  0  0  0  0  0  0
    4.0362   -0.7789    7.8461 C   0  0  0  0  0  0  0  0  0  0  0  0
    6.4095    0.0187    6.2973 C   0  0  0  0  0  0  0  0  0  0  0  0
    2.2778   -0.1193   -0.3759 Au  0  0  0  0  0  0  0  0  0  0  0  0
   -0.0117    0.0762    5.5960 H   0  0  0  0  0  0  0  0  0  0  0  0
   -1.8206   -1.4178    6.0875 H   0  0  0  0  0  0  0  0  0  0  0  0
   -3.8992   -1.3697    7.4568 H   0  0  0  0  0  0  0  0  0  0  0  0
   -5.5877    1.5425    4.7591 H   0  0  0  0  0  0  0  0  0  0  0  0
   -3.5458    1.4977    3.4163 H   0  0  0  0  0  0  0  0  0  0  0  0
   -6.8553    1.8953    6.6996 H   0  0  0  0  0  0  0  0  0  0  0  0
   -7.8450    0.6093    7.4617 H   0  0  0  0  0  0  0  0  0  0  0  0
   -7.5052    0.5506    5.7018 H   0  0  0  0  0  0  0  0  0  0  0  0
    3.5199    0.6430    2.6547 H   0  0  0  0  0  0  0  0  0  0  0  0
    5.7629    0.6614    3.7336 H   0  0  0  0  0  0  0  0  0  0  0  0
    1.7888   -0.6858    6.3622 H   0  0  0  0  0  0  0  0  0  0  0  0
    3.0611   -1.0459    8.2776 H   0  0  0  0  0  0  0  0  0  0  0  0
    4.7069   -1.6466    7.9640 H   0  0  0  0  0  0  0  0  0  0  0  0
    4.4650    0.0331    8.4572 H   0  0  0  0  0  0  0  0  0  0  0  0
    6.4435    0.7018    7.1628 H   0  0  0  0  0  0  0  0  0  0  0  0
    6.6869   -0.9793    6.6770 H   0  0  0  0  0  0  0  0  0  0  0  0
    7.1841    0.3364    5.5852 H   0  0  0  0  0  0  0  0  0  0  0  0
  1  2  3  0  0  0  0
  3  2  1  1  0  0  0
  3  9  1  0  0  0  0
  4  6  2  0  0  0  0
  4  3  1  0  0  0  0
  5  4  1  0  0  0  0
  6  7  2  0  0  0  0
  7 18  1  0  0  0  0
  7  8  1  0  0  0  0
  8 27  1  0  0  0  0
  9  8  2  0  0  0  0
  9 10  1  0  0  0  0
 10 11  1  0  0  0  0
 11 28  1  0  0  0  0
 11 12  2  0  0  0  0
 12 29  1  0  0  0  0
 13 12  1  0  0  0  0
 13 16  1  0  0  0  0
 14 13  2  0  0  0  0
 15 10  2  0  0  0  0
 15 14  1  0  0  0  0
 17 32  1  0  0  0  0
 17 16  1  0  0  0  0
 17 33  1  0  0  0  0
 18 23  2  0  0  0  0
 19 20  2  0  0  0  0
 19 18  1  0  0  0  0
 20 21  1  0  0  0  0
 21 25  1  0  0  0  0
 21 22  2  0  0  0  0
 22 24  1  0  0  0  0
 23 37  1  0  0  0  0
 23 22  1  0  0  0  0
 24 39  1  0  0  0  0
 24 38  1  0  0  0  0
 24 40  1  0  0  0  0
 25 42  1  0  0  0  0
 25 41  1  0  0  0  0
 26  5  1  0  0  0  0
 30 14  1  0  0  0  0
 31 15  1  0  0  0  0
 34 17  1  0  0  0  0
 35 19  1  0  0  0  0
 36 20  1  0  0  0  0
 43 25  1  0  0  0  0
M  RAD  1   3   2
M  END
