30331607.xyz
 OpenBabel07262113453D
Clc1cccc(c1)N1C(=NC(=O)/C(=C/c2ccc(o2)[N+](=O)[O-])/C1=O)S
 33 35  0  0  1  0  0  0  0  0999 V2000
   -4.1949    2.9384   -0.7365 Cl  0  0  0  0  0  0  0  0  0  0  0  0
   -3.8891    1.4611    0.1413 C   0  0  0  0  0  0  0  0  0  0  0  0
   -4.8214    0.4216    0.0960 C   0  0  0  0  0  0  0  0  0  0  0  0
   -4.5711   -0.7508    0.8138 C   0  0  0  0  0  0  0  0  0  0  0  0
   -3.3975   -0.8979    1.5524 C   0  0  0  0  0  0  0  0  0  0  0  0
   -2.4717    0.1495    1.5719 C   0  0  0  0  0  0  0  0  0  0  0  0
   -2.7159    1.3433    0.8885 C   0  0  0  0  0  0  0  0  0  0  0  0
   -1.2656   -0.0003    2.3421 N   0  0  0  0  0  0  0  0  0  0  0  0
    0.0000   -0.0000    1.7646 C   0  0  0  0  0  0  0  0  0  0  0  0
    1.1153    0.0000    2.4295 N   0  0  0  0  0  0  0  0  0  0  0  0
    1.1418   -0.1299    3.8113 C   0  0  0  0  0  0  0  0  0  0  0  0
    2.1592   -0.0060    4.4615 O   0  0  0  0  0  0  0  0  0  0  0  0
   -0.1594   -0.5528    4.4317 C   0  0  2  0  0  0  0  0  0  0  0  0
   -0.1352   -1.2858    5.5723 C   0  0  0  0  0  0  0  0  0  0  0  0
   -1.2273   -2.0438    6.1245 C   0  0  0  0  0  0  0  0  0  0  0  0
   -1.4885   -2.5250    7.3986 C   0  0  0  0  0  0  0  0  0  0  0  0
   -2.7291   -3.2151    7.3307 C   0  0  0  0  0  0  0  0  0  0  0  0
   -3.1109   -3.1223    6.0138 C   0  0  0  0  0  0  0  0  0  0  0  0
   -2.2218   -2.4404    5.2856 O   0  0  0  0  0  0  0  0  0  0  0  0
   -4.2515   -3.6571    5.3243 N   0  0  0  0  0  0  0  0  0  0  0  0
   -5.0635   -4.2520    6.0190 O   0  0  0  0  0  0  0  0  0  0  0  0
   -4.3216   -3.4839    4.1175 O   0  0  0  0  0  0  0  0  0  0  0  0
   -1.4115   -0.1579    3.7414 C   0  0  0  0  0  0  0  0  0  0  0  0
   -2.4690    0.0542    4.2855 O   0  0  0  0  0  0  0  0  0  0  0  0
    0.0000    0.0000    0.0000 S   0  0  0  0  0  0  0  0  0  0  0  0
   -5.7340    0.5397   -0.4894 H   0  0  0  0  0  0  0  0  0  0  0  0
   -5.3022   -1.5615    0.7981 H   0  0  0  0  0  0  0  0  0  0  0  0
   -3.2135   -1.8046    2.1304 H   0  0  0  0  0  0  0  0  0  0  0  0
   -2.0034    2.1663    0.9301 H   0  0  0  0  0  0  0  0  0  0  0  0
    0.8299   -1.3666    6.0826 H   0  0  0  0  0  0  0  0  0  0  0  0
   -0.8633   -2.3753    8.2759 H   0  0  0  0  0  0  0  0  0  0  0  0
   -3.2779   -3.7192    8.1205 H   0  0  0  0  0  0  0  0  0  0  0  0
    2.3039   -0.0768   -0.2802 Au  0  0  0  0  0  0  0  0  0  0  0  0
  1  2  1  0  0  0  0
  2  7  1  0  0  0  0
  3  2  2  0  0  0  0
  3  4  1  0  0  0  0
  4  5  2  0  0  0  0
  5  6  1  0  0  0  0
  5 28  1  0  0  0  0
  6  8  1  0  0  0  0
  7 29  1  0  0  0  0
  7  6  2  0  0  0  0
  8 23  1  0  0  0  0
  9  8  1  0  0  0  0
  9 10  2  0  0  0  0
 10 11  2  0  0  0  0
 11 13  1  0  0  0  0
 11 12  2  0  0  0  0
 13 14  1  6  0  0  0
 14 30  1  0  0  0  0
 14 15  1  0  0  0  0
 15 16  2  0  0  0  0
 16 31  1  0  0  0  0
 17 16  1  0  0  0  0
 17 32  1  0  0  0  0
 18 17  2  0  0  0  0
 19 18  1  0  0  0  0
 19 15  1  0  0  0  0
 20 18  1  0  0  0  0
 20 21  2  0  0  0  0
 22 20  2  0  0  0  0
 23 24  2  0  0  0  0
 23 13  1  0  0  0  0
 25  9  1  0  0  0  0
 26  3  1  0  0  0  0
 27  4  1  0  0  0  0
 33 25  1  0  0  0  0
M  RAD  2  13   2  14   2
M  END
