303968960.xyz
 OpenBabel07262113463D
Cc1ncc(c(=O)n1CC=CCS)Br
 25 26  0  0  1  0  0  0  0  0999 V2000
    4.5981    0.3437    0.7863 C   0  0  0  0  0  0  0  0  0  0  0  0
    4.0350    1.7254    0.9742 C   0  0  2  0  0  0  0  0  0  0  0  0
    3.8435    2.4863   -0.1044 N   0  0  0  0  0  0  0  0  0  0  0  0
    3.5778    3.8208    0.0759 C   0  0  0  0  0  0  0  0  0  0  0  0
    3.5204    4.3987    1.3092 C   0  0  0  0  0  0  0  0  0  0  0  0
    3.5526    3.5732    2.5118 C   0  0  0  0  0  0  0  0  0  0  0  0
    3.3430    3.9393    3.6478 O   0  0  0  0  0  0  0  0  0  0  0  0
    3.8188    2.1918    2.2337 N   0  0  0  0  0  0  0  0  0  0  0  0
    3.3982    1.2460    3.3150 C   0  0  0  0  0  0  0  0  0  0  0  0
    1.9230    1.0314    3.0979 C   0  0  0  0  0  0  0  0  0  0  0  0
    1.3865   -0.0000    2.4280 C   0  0  0  0  0  0  0  0  0  0  0  0
    0.0000   -0.0000    1.8711 C   0  0  0  0  0  0  0  0  0  0  0  0
    0.0000    0.0000    0.0000 S   0  0  0  0  0  0  0  0  0  0  0  0
    3.2314    6.2448    1.5349 Br  0  0  0  0  0  0  0  0  0  0  0  0
    4.8022    0.1940   -0.2796 H   0  0  0  0  0  0  0  0  0  0  0  0
    3.9164   -0.4443    1.1278 H   0  0  0  0  0  0  0  0  0  0  0  0
    5.5391    0.2552    1.3543 H   0  0  0  0  0  0  0  0  0  0  0  0
    3.4174    4.4050   -0.8328 H   0  0  0  0  0  0  0  0  0  0  0  0
    3.9843    0.3243    3.2404 H   0  0  0  0  0  0  0  0  0  0  0  0
    3.6195    1.7453    4.2640 H   0  0  0  0  0  0  0  0  0  0  0  0
    1.2962    1.8987    3.3343 H   0  0  0  0  0  0  0  0  0  0  0  0
    2.0036   -0.8675    2.1646 H   0  0  0  0  0  0  0  0  0  0  0  0
   -0.5460   -0.9213    2.1301 H   0  0  0  0  0  0  0  0  0  0  0  0
   -0.5724    0.8623    2.2421 H   0  0  0  0  0  0  0  0  0  0  0  0
    1.8405    1.3299   -0.4192 Au  0  0  0  0  0  0  0  0  0  0  0  0
  1 16  1  0  0  0  0
  1 17  1  0  0  0  0
  2  1  1  1  0  0  0
  2  8  1  0  0  0  0
  3  4  1  0  0  0  0
  3  2  1  0  0  0  0
  4  5  2  0  0  0  0
  5 14  1  0  0  0  0
  5  6  1  0  0  0  0
  6  7  2  0  0  0  0
  8  6  1  0  0  0  0
  8  9  1  0  0  0  0
  9 20  1  0  0  0  0
 10  9  1  0  0  0  0
 10 21  1  0  0  0  0
 11 10  2  0  0  0  0
 12 23  1  0  0  0  0
 12 24  1  0  0  0  0
 12 11  1  0  0  0  0
 13 12  1  0  0  0  0
 15  1  1  0  0  0  0
 18  4  1  0  0  0  0
 19  9  1  0  0  0  0
 22 11  1  0  0  0  0
 25  3  1  0  0  0  0
 25 13  1  0  0  0  0
M  RAD  1   2   2
M  END
