303947394.xyz
 OpenBabel07262113463D
OC(=O)[C@@H]1C[C@H](CN1)S
 18 18  0  0  1  0  0  0  0  0999 V2000
    3.5756   -0.3896    4.2446 O   0  0  0  0  0  0  0  0  0  0  0  0
    2.3971   -0.9553    4.5733 C   0  0  0  0  0  0  0  0  0  0  0  0
    2.1220   -1.2989    5.6941 O   0  0  0  0  0  0  0  0  0  0  0  0
    1.5109   -1.1586    3.3625 C   0  0  2  0  0  0  0  0  0  0  0  0
    1.4727   -0.0000    2.3370 C   0  0  0  0  0  0  0  0  0  0  0  0
    0.0000    0.0000    1.8335 C   0  0  2  0  0  0  0  0  0  0  0  0
   -0.6225   -1.2421    2.4980 C   0  0  0  0  0  0  0  0  0  0  0  0
    0.1222   -1.3163    3.7408 N   0  0  0  0  0  0  0  0  0  0  0  0
    0.0000    0.0000    0.0000 S   0  0  0  0  0  0  0  0  0  0  0  0
    4.1001   -0.3367    5.0623 H   0  0  0  0  0  0  0  0  0  0  0  0
    1.9275   -2.0560    2.8451 H   0  0  0  0  0  0  0  0  0  0  0  0
    1.7166    0.9609    2.8079 H   0  0  0  0  0  0  0  0  0  0  0  0
    2.1984   -0.1637    1.5277 H   0  0  0  0  0  0  0  0  0  0  0  0
   -0.5092    0.9027    2.1919 H   0  0  0  0  0  0  0  0  0  0  0  0
   -0.4745   -2.1185    1.8313 H   0  0  0  0  0  0  0  0  0  0  0  0
   -1.7030   -1.1236    2.6737 H   0  0  0  0  0  0  0  0  0  0  0  0
   -0.0541   -2.1400    4.3105 H   0  0  0  0  0  0  0  0  0  0  0  0
   -2.2314   -0.0386   -0.5191 Au  0  0  0  0  0  0  0  0  0  0  0  0
  1  2  1  0  0  0  0
  1 10  1  0  0  0  0
  2  3  2  0  0  0  0
  4 11  1  6  0  0  0
  4  8  1  0  0  0  0
  4  2  1  0  0  0  0
  5 12  1  0  0  0  0
  5  4  1  0  0  0  0
  6 14  1  1  0  0  0
  6  5  1  0  0  0  0
  6  7  1  0  0  0  0
  7 16  1  0  0  0  0
  7  8  1  0  0  0  0
  8 17  1  0  0  0  0
  9  6  1  0  0  0  0
 13  5  1  0  0  0  0
 15  7  1  0  0  0  0
 18  9  1  0  0  0  0
M  END
