304064569.xyz
 OpenBabel07262113463D
CCN1CCN(CC1)C(=O)C(S)C
 31 31  0  0  1  0  0  0  0  0999 V2000
   -4.1826    2.8556   -1.3923 C   0  0  0  0  0  0  0  0  0  0  0  0
   -3.6884    1.6912   -0.5404 C   0  0  0  0  0  0  0  0  0  0  0  0
   -4.2818    1.6852    0.7940 N   0  0  0  0  0  0  0  0  0  0  0  0
   -3.7771    2.7311    1.6919 C   0  0  0  0  0  0  0  0  0  0  0  0
   -3.0008    2.1479    2.8845 C   0  0  0  0  0  0  0  0  0  0  0  0
   -2.1864    1.0213    2.4450 N   0  0  0  0  0  0  0  0  0  0  0  0
   -2.9301   -0.1070    1.8820 C   0  0  0  0  0  0  0  0  0  0  0  0
   -4.3243    0.3879    1.4372 C   0  0  0  0  0  0  0  0  0  0  0  0
   -0.8313    1.1749    2.3855 C   0  0  0  0  0  0  0  0  0  0  0  0
   -0.2731    2.2099    2.7327 O   0  0  0  0  0  0  0  0  0  0  0  0
    0.0000    0.0000    1.8548 C   0  0  1  0  0  0  0  0  0  0  0  0
    0.0000    0.0000    0.0000 S   0  0  0  0  0  0  0  0  0  0  0  0
    1.4023    0.0000    2.4463 C   0  0  0  0  0  0  0  0  0  0  0  0
   -3.9004    3.8266   -0.9545 H   0  0  0  0  0  0  0  0  0  0  0  0
   -3.7454    2.8098   -2.4027 H   0  0  0  0  0  0  0  0  0  0  0  0
   -5.2802    2.8332   -1.4782 H   0  0  0  0  0  0  0  0  0  0  0  0
   -2.5779    1.6988   -0.5062 H   0  0  0  0  0  0  0  0  0  0  0  0
   -3.9693    0.7451   -1.0316 H   0  0  0  0  0  0  0  0  0  0  0  0
   -3.0986    3.3897    1.1273 H   0  0  0  0  0  0  0  0  0  0  0  0
   -4.5972    3.3701    2.0721 H   0  0  0  0  0  0  0  0  0  0  0  0
   -2.3321    2.8980    3.3206 H   0  0  0  0  0  0  0  0  0  0  0  0
   -3.6898    1.8047    3.6742 H   0  0  0  0  0  0  0  0  0  0  0  0
   -2.3913   -0.4871    1.0038 H   0  0  0  0  0  0  0  0  0  0  0  0
   -3.0303   -0.9339    2.6117 H   0  0  0  0  0  0  0  0  0  0  0  0
   -4.7650   -0.3520    0.7517 H   0  0  0  0  0  0  0  0  0  0  0  0
   -5.0010    0.4425    2.3062 H   0  0  0  0  0  0  0  0  0  0  0  0
   -0.5036   -0.9533    2.0822 H   0  0  0  0  0  0  0  0  0  0  0  0
    0.5748    2.1886   -0.4368 Au  0  0  0  0  0  0  0  0  0  0  0  0
    1.9052    0.9517    2.2282 H   0  0  0  0  0  0  0  0  0  0  0  0
    1.3563   -0.1127    3.5418 H   0  0  0  0  0  0  0  0  0  0  0  0
    1.9931   -0.8252    2.0250 H   0  0  0  0  0  0  0  0  0  0  0  0
  1 14  1  0  0  0  0
  1  2  1  0  0  0  0
  2 17  1  0  0  0  0
  2  3  1  0  0  0  0
  3  8  1  0  0  0  0
  3  4  1  0  0  0  0
  4 20  1  0  0  0  0
  4  5  1  0  0  0  0
  5 21  1  0  0  0  0
  5 22  1  0  0  0  0
  6  5  1  0  0  0  0
  7  6  1  0  0  0  0
  7 24  1  0  0  0  0
  8  7  1  0  0  0  0
  8 26  1  0  0  0  0
  9  6  1  0  0  0  0
  9 10  2  0  0  0  0
 11 27  1  1  0  0  0
 11  9  1  0  0  0  0
 11 13  1  0  0  0  0
 12 11  1  0  0  0  0
 13 30  1  0  0  0  0
 15  1  1  0  0  0  0
 16  1  1  0  0  0  0
 18  2  1  0  0  0  0
 19  4  1  0  0  0  0
 23  7  1  0  0  0  0
 25  8  1  0  0  0  0
 28 12  1  0  0  0  0
 29 13  1  0  0  0  0
 31 13  1  0  0  0  0
M  END
