304076721.xyz
 OpenBabel07262113463D
CC1SCCN(C1=O)CC(=C)CS
 28 28  0  0  1  0  0  0  0  0999 V2000
    6.7679    1.2285    4.1589 C   0  0  0  0  0  0  0  0  0  0  0  0
    5.8550    1.1267    2.9472 C   0  0  1  0  0  0  0  0  0  0  0  0
    5.9919   -0.5821    2.2400 S   0  0  0  0  0  0  0  0  0  0  0  0
    4.7235   -0.4694    0.9131 C   0  0  0  0  0  0  0  0  0  0  0  0
    3.9815    0.8698    0.9386 C   0  0  0  0  0  0  0  0  0  0  0  0
    3.5169    1.2499    2.2648 N   0  0  0  0  0  0  0  0  0  0  0  0
    4.3956    1.3970    3.3084 C   0  0  0  0  0  0  0  0  0  0  0  0
    4.0471    1.6941    4.4394 O   0  0  0  0  0  0  0  0  0  0  0  0
    2.0905    1.3391    2.5109 C   0  0  0  0  0  0  0  0  0  0  0  0
    1.3755    0.0000    2.4600 C   0  0  0  0  0  0  0  0  0  0  0  0
    1.9358   -1.1205    2.9328 C   0  0  0  0  0  0  0  0  0  0  0  0
   -0.0000    0.0000    1.8588 C   0  0  0  0  0  0  0  0  0  0  0  0
    0.0000    0.0000    0.0000 S   0  0  0  0  0  0  0  0  0  0  0  0
    6.6971    2.2356    4.5936 H   0  0  0  0  0  0  0  0  0  0  0  0
    6.4606    0.5123    4.9338 H   0  0  0  0  0  0  0  0  0  0  0  0
    7.8122    1.0308    3.8766 H   0  0  0  0  0  0  0  0  0  0  0  0
    6.1799    1.8395    2.1717 H   0  0  0  0  0  0  0  0  0  0  0  0
    4.0126   -1.2938    1.0600 H   0  0  0  0  0  0  0  0  0  0  0  0
    5.2098   -0.5975   -0.0660 H   0  0  0  0  0  0  0  0  0  0  0  0
    4.6317    1.6592    0.5240 H   0  0  0  0  0  0  0  0  0  0  0  0
    3.1036    0.7981    0.2805 H   0  0  0  0  0  0  0  0  0  0  0  0
    1.9688    1.7848    3.5094 H   0  0  0  0  0  0  0  0  0  0  0  0
    1.6385    2.0317    1.7798 H   0  0  0  0  0  0  0  0  0  0  0  0
    2.9456   -1.1236    3.3515 H   0  0  0  0  0  0  0  0  0  0  0  0
    1.4002   -2.0736    2.9095 H   0  0  0  0  0  0  0  0  0  0  0  0
   -0.5334   -0.9325    2.1002 H   0  0  0  0  0  0  0  0  0  0  0  0
   -0.6182    0.8358    2.2169 H   0  0  0  0  0  0  0  0  0  0  0  0
    0.2806    2.1956   -0.5936 Au  0  0  0  0  0  0  0  0  0  0  0  0
  1 14  1  0  0  0  0
  1 15  1  0  0  0  0
  2 17  1  6  0  0  0
  2  7  1  0  0  0  0
  2  1  1  0  0  0  0
  3  2  1  0  0  0  0
  4  5  1  0  0  0  0
  4 18  1  0  0  0  0
  4  3  1  0  0  0  0
  5  6  1  0  0  0  0
  6  9  1  0  0  0  0
  6  7  1  0  0  0  0
  7  8  2  0  0  0  0
  9 22  1  0  0  0  0
 10  9  1  0  0  0  0
 10 11  2  0  0  0  0
 11 24  1  0  0  0  0
 12 26  1  0  0  0  0
 12 27  1  0  0  0  0
 12 10  1  0  0  0  0
 13 12  1  0  0  0  0
 16  1  1  0  0  0  0
 19  4  1  0  0  0  0
 20  5  1  0  0  0  0
 21  5  1  0  0  0  0
 23  9  1  0  0  0  0
 25 11  1  0  0  0  0
 28 13  1  0  0  0  0
M  END
