313133520.xyz
 OpenBabel07262113463D
NC(=O)c1c(Br)ccc(c1F)S
 17 17  0  0  0  0  0  0  0  0999 V2000
   -3.4125    1.1318    4.2925 N   0  0  0  0  0  0  0  0  0  0  0  0
   -2.5304    0.1624    4.6607 C   0  0  0  0  0  0  0  0  0  0  0  0
   -2.7564   -0.6573    5.5264 O   0  0  0  0  0  0  0  0  0  0  0  0
   -1.2070    0.1852    3.9156 C   0  0  0  0  0  0  0  0  0  0  0  0
    0.0338    0.1984    4.5798 C   0  0  0  0  0  0  0  0  0  0  0  0
    0.1338    0.3720    6.4672 Br  0  0  0  0  0  0  0  0  0  0  0  0
    1.2337    0.1169    3.8671 C   0  0  0  0  0  0  0  0  0  0  0  0
    1.2122    0.0000    2.4794 C   0  0  0  0  0  0  0  0  0  0  0  0
    0.0000   -0.0000    1.7722 C   0  0  0  0  0  0  0  0  0  0  0  0
   -1.1831    0.1012    2.5209 C   0  0  0  0  0  0  0  0  0  0  0  0
   -2.3560    0.0846    1.8685 F   0  0  0  0  0  0  0  0  0  0  0  0
    0.0000    0.0000    0.0000 S   0  0  0  0  0  0  0  0  0  0  0  0
   -3.2621    1.6966    3.4672 H   0  0  0  0  0  0  0  0  0  0  0  0
   -4.3469    1.0845    4.6836 H   0  0  0  0  0  0  0  0  0  0  0  0
    2.1820    0.1355    4.4048 H   0  0  0  0  0  0  0  0  0  0  0  0
    2.1447   -0.0877    1.9191 H   0  0  0  0  0  0  0  0  0  0  0  0
   -1.0780   -1.9710   -0.5159 Au  0  0  0  0  0  0  0  0  0  0  0  0
  1  2  1  0  0  0  0
  1 14  1  0  0  0  0
  2  3  2  0  0  0  0
  4  5  1  0  0  0  0
  4  2  1  0  0  0  0
  5  6  1  0  0  0  0
  7 15  1  0  0  0  0
  7  5  2  0  0  0  0
  8  7  1  0  0  0  0
  9  8  2  0  0  0  0
  9 10  1  0  0  0  0
 10  4  2  0  0  0  0
 11 10  1  0  0  0  0
 12  9  1  0  0  0  0
 13  1  1  0  0  0  0
 16  8  1  0  0  0  0
 17 12  1  0  0  0  0
M  END
