313145523.xyz
 OpenBabel07262113463D
OCc1cc(S)cc(c1C(F)F)Br
 20 20  0  0  0  0  0  0  0  0999 V2000
    2.7132    1.0307    5.4097 O   0  0  0  0  0  0  0  0  0  0  0  0
    2.5785   -0.1096    4.5798 C   0  0  0  0  0  0  0  0  0  0  0  0
    1.2354   -0.0751    3.8830 C   0  0  0  0  0  0  0  0  0  0  0  0
    1.2115    0.0000    2.4886 C   0  0  0  0  0  0  0  0  0  0  0  0
   -0.0000    0.0000    1.7847 C   0  0  0  0  0  0  0  0  0  0  0  0
    0.0000    0.0000    0.0000 S   0  0  0  0  0  0  0  0  0  0  0  0
   -1.2040   -0.0851    2.4948 C   0  0  0  0  0  0  0  0  0  0  0  0
   -1.1848   -0.1492    3.8886 C   0  0  0  0  0  0  0  0  0  0  0  0
    0.0244   -0.1336    4.6076 C   0  0  0  0  0  0  0  0  0  0  0  0
    0.0594   -0.2017    6.1201 C   0  0  0  0  0  0  0  0  0  0  0  0
   -0.6951    0.7854    6.6698 F   0  0  0  0  0  0  0  0  0  0  0  0
   -0.4400   -1.3947    6.5534 F   0  0  0  0  0  0  0  0  0  0  0  0
   -2.8770   -0.2784    4.7576 Br  0  0  0  0  0  0  0  0  0  0  0  0
    3.5522    0.9654    5.8846 H   0  0  0  0  0  0  0  0  0  0  0  0
    3.3694   -0.1445    3.8088 H   0  0  0  0  0  0  0  0  0  0  0  0
    2.6621   -1.0467    5.1667 H   0  0  0  0  0  0  0  0  0  0  0  0
    2.1473    0.0619    1.9309 H   0  0  0  0  0  0  0  0  0  0  0  0
   -0.2653    2.2340   -0.4899 Au  0  0  0  0  0  0  0  0  0  0  0  0
   -2.1530   -0.0983    1.9592 H   0  0  0  0  0  0  0  0  0  0  0  0
    1.0769   -0.0882    6.5120 H   0  0  0  0  0  0  0  0  0  0  0  0
  1 14  1  0  0  0  0
  2 16  1  0  0  0  0
  2  1  1  0  0  0  0
  3  2  1  0  0  0  0
  3  9  2  0  0  0  0
  4  3  1  0  0  0  0
  5  4  2  0  0  0  0
  5  7  1  0  0  0  0
  6  5  1  0  0  0  0
  7  8  2  0  0  0  0
  8  9  1  0  0  0  0
  8 13  1  0  0  0  0
  9 10  1  0  0  0  0
 10 20  1  0  0  0  0
 10 12  1  0  0  0  0
 10 11  1  0  0  0  0
 15  2  1  0  0  0  0
 17  4  1  0  0  0  0
 18  6  1  0  0  0  0
 19  7  1  0  0  0  0
M  END
