313146524.xyz
 OpenBabel07262113463D
NC(=O)c1ccc(c(c1S)Cl)Br
 17 17  0  0  0  0  0  0  0  0999 V2000
   -2.9276    0.2334    0.8164 N   0  0  0  0  0  0  0  0  0  0  0  0
   -2.6489   -0.0462    2.1104 C   0  0  0  0  0  0  0  0  0  0  0  0
   -3.5324   -0.2159    2.9383 O   0  0  0  0  0  0  0  0  0  0  0  0
   -1.1857   -0.0954    2.5639 C   0  0  0  0  0  0  0  0  0  0  0  0
   -1.0642   -0.2335    3.9541 C   0  0  0  0  0  0  0  0  0  0  0  0
    0.1676   -0.2492    4.5923 C   0  0  0  0  0  0  0  0  0  0  0  0
    1.3374   -0.1203    3.8421 C   0  0  0  0  0  0  0  0  0  0  0  0
    1.2607   -0.0000    2.4468 C   0  0  0  0  0  0  0  0  0  0  0  0
    0.0000   -0.0000    1.7867 C   0  0  0  0  0  0  0  0  0  0  0  0
    0.0000    0.0000    0.0000 S   0  0  0  0  0  0  0  0  0  0  0  0
    2.7255    0.1879    1.5354 Cl  0  0  0  0  0  0  0  0  0  0  0  0
    2.9995   -0.1190    4.7555 Br  0  0  0  0  0  0  0  0  0  0  0  0
   -2.1984    0.2405    0.1087 H   0  0  0  0  0  0  0  0  0  0  0  0
   -3.9069    0.2229    0.5568 H   0  0  0  0  0  0  0  0  0  0  0  0
   -1.9910   -0.3207    4.5213 H   0  0  0  0  0  0  0  0  0  0  0  0
    0.2322   -0.3520    5.6761 H   0  0  0  0  0  0  0  0  0  0  0  0
    0.4243    2.2230   -0.4699 Au  0  0  0  0  0  0  0  0  0  0  0  0
  1  2  1  0  0  0  0
  2  4  1  0  0  0  0
  2  3  2  0  0  0  0
  4  5  2  0  0  0  0
  5 15  1  0  0  0  0
  5  6  1  0  0  0  0
  6 16  1  0  0  0  0
  7  6  2  0  0  0  0
  7 12  1  0  0  0  0
  8  7  1  0  0  0  0
  9  8  2  0  0  0  0
  9  4  1  0  0  0  0
 10  9  1  0  0  0  0
 11  8  1  0  0  0  0
 13  1  1  0  0  0  0
 14  1  1  0  0  0  0
 17 10  1  0  0  0  0
M  END
