313149328.xyz
 OpenBabel07262113463D
Brc1cc(S)c(c(c1)C(=O)Cl)Cl
 15 15  0  0  0  0  0  0  0  0999 V2000
   -3.0288    0.4181    4.6304 Br  0  0  0  0  0  0  0  0  0  0  0  0
   -1.3297    0.2418    3.7972 C   0  0  0  0  0  0  0  0  0  0  0  0
   -1.2496    0.1006    2.4136 C   0  0  0  0  0  0  0  0  0  0  0  0
   -0.0000    0.0000    1.7749 C   0  0  0  0  0  0  0  0  0  0  0  0
    0.0000    0.0000    0.0000 S   0  0  0  0  0  0  0  0  0  0  0  0
    1.1705   -0.0000    2.5674 C   0  0  0  0  0  0  0  0  0  0  0  0
    1.0738    0.0819    3.9665 C   0  0  0  0  0  0  0  0  0  0  0  0
   -0.1761    0.2423    4.5797 C   0  0  0  0  0  0  0  0  0  0  0  0
    2.2469    0.0464    4.8966 C   0  0  0  0  0  0  0  0  0  0  0  0
    2.4824    0.8531    5.7345 O   0  0  0  0  0  0  0  0  0  0  0  0
    3.2228   -1.4565    4.7584 Cl  0  0  0  0  0  0  0  0  0  0  0  0
    2.7335   -0.0608    1.8164 Cl  0  0  0  0  0  0  0  0  0  0  0  0
   -2.1537    0.0755    1.8052 H   0  0  0  0  0  0  0  0  0  0  0  0
    1.0552   -1.9899   -0.5091 Au  0  0  0  0  0  0  0  0  0  0  0  0
   -0.2343    0.3484    5.6630 H   0  0  0  0  0  0  0  0  0  0  0  0
  2  8  2  0  0  0  0
  2  1  1  0  0  0  0
  3  2  1  0  0  0  0
  4  3  2  0  0  0  0
  4  6  1  0  0  0  0
  5  4  1  0  0  0  0
  6  7  2  0  0  0  0
  7  8  1  0  0  0  0
  7  9  1  0  0  0  0
  8 15  1  0  0  0  0
  9 10  2  0  0  0  0
 11  9  1  0  0  0  0
 12  6  1  0  0  0  0
 13  3  1  0  0  0  0
 14  5  1  0  0  0  0
M  END
