313184472.xyz
 OpenBabel07262113463D
OC(=O)Cc1cc(OC(F)(F)F)c(c(c1)Br)S
 23 23  0  0  0  0  0  0  0  0999 V2000
    0.0455   -1.0853    8.0695 O   0  0  0  0  0  0  0  0  0  0  0  0
   -0.4812   -0.9091    6.8439 C   0  0  0  0  0  0  0  0  0  0  0  0
   -1.3974   -1.5665    6.4221 O   0  0  0  0  0  0  0  0  0  0  0  0
    0.2006    0.2400    6.1180 C   0  0  0  0  0  0  0  0  0  0  0  0
    0.1271    0.1506    4.6156 C   0  0  0  0  0  0  0  0  0  0  0  0
    1.2982    0.0848    3.8549 C   0  0  0  0  0  0  0  0  0  0  0  0
    1.2264   -0.0000    2.4676 C   0  0  0  0  0  0  0  0  0  0  0  0
    2.4087   -0.0323    1.7379 O   0  0  0  0  0  0  0  0  0  0  0  0
    3.1031   -1.1904    1.6841 C   0  0  0  0  0  0  0  0  0  0  0  0
    4.0655   -1.0507    0.7871 F   0  0  0  0  0  0  0  0  0  0  0  0
    3.6706   -1.4938    2.8682 F   0  0  0  0  0  0  0  0  0  0  0  0
    2.3354   -2.2350    1.3471 F   0  0  0  0  0  0  0  0  0  0  0  0
    0.0000   -0.0000    1.7710 C   0  0  0  0  0  0  0  0  0  0  0  0
   -1.1683    0.0689    2.5663 C   0  0  0  0  0  0  0  0  0  0  0  0
   -1.1091    0.1341    3.9576 C   0  0  0  0  0  0  0  0  0  0  0  0
   -2.8883    0.0317    1.7641 Br  0  0  0  0  0  0  0  0  0  0  0  0
    0.0000    0.0000    0.0000 S   0  0  0  0  0  0  0  0  0  0  0  0
   -0.4602   -1.7998    8.4949 H   0  0  0  0  0  0  0  0  0  0  0  0
    1.2403    0.3099    6.4650 H   0  0  0  0  0  0  0  0  0  0  0  0
   -0.3031    1.1577    6.4732 H   0  0  0  0  0  0  0  0  0  0  0  0
    2.2792    0.0959    4.3304 H   0  0  0  0  0  0  0  0  0  0  0  0
   -2.0335    0.1618    4.5324 H   0  0  0  0  0  0  0  0  0  0  0  0
   -0.7561   -2.1364   -0.4471 Au  0  0  0  0  0  0  0  0  0  0  0  0
  1 18  1  0  0  0  0
  2  1  1  0  0  0  0
  3  2  2  0  0  0  0
  4 19  1  0  0  0  0
  4 20  1  0  0  0  0
  4  2  1  0  0  0  0
  5  4  1  0  0  0  0
  6 21  1  0  0  0  0
  6  5  2  0  0  0  0
  7  6  1  0  0  0  0
  8  7  1  0  0  0  0
  9  8  1  0  0  0  0
  9 11  1  0  0  0  0
 10  9  1  0  0  0  0
 12  9  1  0  0  0  0
 13  7  2  0  0  0  0
 13 14  1  0  0  0  0
 14 15  2  0  0  0  0
 15 22  1  0  0  0  0
 15  5  1  0  0  0  0
 16 14  1  0  0  0  0
 17 13  1  0  0  0  0
 23 17  1  0  0  0  0
M  END
