313187060.xyz
 OpenBabel07262113463D
N#Cc1cc(Cl)cc(c1OC(F)(F)F)S
 18 18  0  0  0  0  0  0  0  0999 V2000
   -3.1811    0.0091    5.4765 N   0  0  0  0  0  0  0  0  0  0  0  0
   -2.2503   -0.0448    4.7867 C   0  0  0  0  0  0  0  0  0  0  0  0
   -1.0684   -0.0839    3.9747 C   0  0  0  0  0  0  0  0  0  0  0  0
    0.1902   -0.1040    4.5984 C   0  0  0  0  0  0  0  0  0  0  0  0
    1.3373   -0.0768    3.8071 C   0  0  0  0  0  0  0  0  0  0  0  0
    2.9025   -0.0946    4.5692 Cl  0  0  0  0  0  0  0  0  0  0  0  0
    1.2507    0.0000    2.4166 C   0  0  0  0  0  0  0  0  0  0  0  0
   -0.0000    0.0000    1.7749 C   0  0  0  0  0  0  0  0  0  0  0  0
   -1.1596   -0.0698    2.5711 C   0  0  0  0  0  0  0  0  0  0  0  0
   -2.4069    0.0009    1.9832 O   0  0  0  0  0  0  0  0  0  0  0  0
   -3.0739   -1.1494    1.6640 C   0  0  0  0  0  0  0  0  0  0  0  0
   -3.6158   -1.7177    2.7430 F   0  0  0  0  0  0  0  0  0  0  0  0
   -2.2797   -2.0531    1.0917 F   0  0  0  0  0  0  0  0  0  0  0  0
   -4.0424   -0.8174    0.8219 F   0  0  0  0  0  0  0  0  0  0  0  0
    0.0000    0.0000    0.0000 S   0  0  0  0  0  0  0  0  0  0  0  0
    0.2625   -0.1259    5.6850 H   0  0  0  0  0  0  0  0  0  0  0  0
    2.1586    0.0694    1.8172 H   0  0  0  0  0  0  0  0  0  0  0  0
   -1.6011    1.5670   -0.5525 Au  0  0  0  0  0  0  0  0  0  0  0  0
  2  1  3  0  0  0  0
  3  4  1  0  0  0  0
  3  2  1  0  0  0  0
  4 16  1  0  0  0  0
  5  6  1  0  0  0  0
  5  4  2  0  0  0  0
  7  5  1  0  0  0  0
  8  7  2  0  0  0  0
  8  9  1  0  0  0  0
  9  3  2  0  0  0  0
 10  9  1  0  0  0  0
 11 10  1  0  0  0  0
 11 12  1  0  0  0  0
 13 11  1  0  0  0  0
 14 11  1  0  0  0  0
 15  8  1  0  0  0  0
 17  7  1  0  0  0  0
 18 15  1  0  0  0  0
M  END
