313133010.xyz
 OpenBabel07262113463D
Fc1cc(S)c(c(c1)C(=O)Cl)Br
 15 15  0  0  0  0  0  0  0  0999 V2000
    2.5447    0.0754    4.3744 F   0  0  0  0  0  0  0  0  0  0  0  0
    1.3423    0.0811    3.7925 C   0  0  0  0  0  0  0  0  0  0  0  0
    1.2560   -0.0000    2.4094 C   0  0  0  0  0  0  0  0  0  0  0  0
   -0.0000    0.0000    1.7759 C   0  0  0  0  0  0  0  0  0  0  0  0
    0.0000    0.0000    0.0000 S   0  0  0  0  0  0  0  0  0  0  0  0
   -1.1630    0.0856    2.5769 C   0  0  0  0  0  0  0  0  0  0  0  0
   -1.0522    0.1667    3.9745 C   0  0  0  0  0  0  0  0  0  0  0  0
    0.2052    0.1480    4.5899 C   0  0  0  0  0  0  0  0  0  0  0  0
   -2.2282    0.2574    4.9009 C   0  0  0  0  0  0  0  0  0  0  0  0
   -2.5084   -0.5342    5.7384 O   0  0  0  0  0  0  0  0  0  0  0  0
   -3.1302    1.8029    4.7388 Cl  0  0  0  0  0  0  0  0  0  0  0  0
   -2.8866   -0.0093    1.7912 Br  0  0  0  0  0  0  0  0  0  0  0  0
    2.1658   -0.0763    1.8135 H   0  0  0  0  0  0  0  0  0  0  0  0
   -1.0466   -1.9994   -0.4982 Au  0  0  0  0  0  0  0  0  0  0  0  0
    0.2999    0.1928    5.6754 H   0  0  0  0  0  0  0  0  0  0  0  0
  2  1  1  0  0  0  0
  2  8  2  0  0  0  0
  3  2  1  0  0  0  0
  4  3  2  0  0  0  0
  4  6  1  0  0  0  0
  5  4  1  0  0  0  0
  6  7  2  0  0  0  0
  7  8  1  0  0  0  0
  7  9  1  0  0  0  0
  8 15  1  0  0  0  0
  9 10  2  0  0  0  0
 11  9  1  0  0  0  0
 12  6  1  0  0  0  0
 13  3  1  0  0  0  0
 14  5  1  0  0  0  0
M  END
