313191894.xyz
 OpenBabel07262113463D
COc1cc(C(=O)Cl)c(cc1Br)S
 19 19  0  0  0  0  0  0  0  0999 V2000
   -0.8833    0.0349    6.7746 C   0  0  0  0  0  0  0  0  0  0  0  0
    0.2668   -0.0103    5.9543 O   0  0  0  0  0  0  0  0  0  0  0  0
    0.1262   -0.0070    4.6187 C   0  0  0  0  0  0  0  0  0  0  0  0
   -1.1072    0.0284    3.9556 C   0  0  0  0  0  0  0  0  0  0  0  0
   -1.1727   -0.0045    2.5585 C   0  0  0  0  0  0  0  0  0  0  0  0
   -2.5133   -0.0331    1.9081 C   0  0  0  0  0  0  0  0  0  0  0  0
   -2.9805   -0.8678    1.2166 O   0  0  0  0  0  0  0  0  0  0  0  0
   -3.4735    1.4795    2.3109 Cl  0  0  0  0  0  0  0  0  0  0  0  0
   -0.0000    0.0000    1.7782 C   0  0  0  0  0  0  0  0  0  0  0  0
    1.2373    0.0000    2.4484 C   0  0  0  0  0  0  0  0  0  0  0  0
    1.3034   -0.0285    3.8358 C   0  0  0  0  0  0  0  0  0  0  0  0
    2.9902   -0.0542    4.7000 Br  0  0  0  0  0  0  0  0  0  0  0  0
    0.0000    0.0000    0.0000 S   0  0  0  0  0  0  0  0  0  0  0  0
   -1.5344   -0.8406    6.6071 H   0  0  0  0  0  0  0  0  0  0  0  0
   -1.4660    0.9567    6.6042 H   0  0  0  0  0  0  0  0  0  0  0  0
   -0.5225    0.0227    7.8106 H   0  0  0  0  0  0  0  0  0  0  0  0
   -2.0354    0.0779    4.5225 H   0  0  0  0  0  0  0  0  0  0  0  0
    2.1572    0.0315    1.8642 H   0  0  0  0  0  0  0  0  0  0  0  0
   -1.0681    1.9942   -0.4747 Au  0  0  0  0  0  0  0  0  0  0  0  0
  1 16  1  0  0  0  0
  2  1  1  0  0  0  0
  3  2  1  0  0  0  0
  4 17  1  0  0  0  0
  4  3  1  0  0  0  0
  5  4  2  0  0  0  0
  6  8  1  0  0  0  0
  6  5  1  0  0  0  0
  7  6  2  0  0  0  0
  9 10  2  0  0  0  0
  9  5  1  0  0  0  0
 10 11  1  0  0  0  0
 11  3  2  0  0  0  0
 11 12  1  0  0  0  0
 13  9  1  0  0  0  0
 14  1  1  0  0  0  0
 15  1  1  0  0  0  0
 18 10  1  0  0  0  0
 19 13  1  0  0  0  0
M  END
