313132499.xyz
 OpenBabel07262113463D
Brc1cc(F)c(c(c1)S)C(=O)Cl
 15 15  0  0  0  0  0  0  0  0999 V2000
    3.0186    0.0824    4.6649 Br  0  0  0  0  0  0  0  0  0  0  0  0
    1.3191    0.0692    3.8169 C   0  0  0  0  0  0  0  0  0  0  0  0
    0.1670    0.1078    4.6055 C   0  0  0  0  0  0  0  0  0  0  0  0
   -1.0610    0.0890    3.9546 C   0  0  0  0  0  0  0  0  0  0  0  0
   -2.1813    0.1288    4.6834 F   0  0  0  0  0  0  0  0  0  0  0  0
   -1.1744    0.0563    2.5631 C   0  0  0  0  0  0  0  0  0  0  0  0
    0.0000   -0.0000    1.7803 C   0  0  0  0  0  0  0  0  0  0  0  0
    1.2491    0.0000    2.4249 C   0  0  0  0  0  0  0  0  0  0  0  0
    0.0000    0.0000    0.0000 S   0  0  0  0  0  0  0  0  0  0  0  0
   -2.5361    0.0897    1.9574 C   0  0  0  0  0  0  0  0  0  0  0  0
   -3.0930    0.9920    1.4433 O   0  0  0  0  0  0  0  0  0  0  0  0
   -3.3605   -1.5522    2.0959 Cl  0  0  0  0  0  0  0  0  0  0  0  0
    0.2046    0.1511    5.6934 H   0  0  0  0  0  0  0  0  0  0  0  0
    2.1574   -0.0657    1.8268 H   0  0  0  0  0  0  0  0  0  0  0  0
   -1.4208   -1.7630   -0.4749 Au  0  0  0  0  0  0  0  0  0  0  0  0
  2  3  2  0  0  0  0
  2  1  1  0  0  0  0
  3 13  1  0  0  0  0
  4  3  1  0  0  0  0
  4  5  1  0  0  0  0
  6  4  2  0  0  0  0
  7  8  2  0  0  0  0
  7  6  1  0  0  0  0
  8  2  1  0  0  0  0
  9  7  1  0  0  0  0
 10 12  1  0  0  0  0
 10  6  1  0  0  0  0
 11 10  2  0  0  0  0
 14  8  1  0  0  0  0
 15  9  1  0  0  0  0
M  END
