313188562.xyz
 OpenBabel07262113463D
COc1ccc(c(c1S)Br)C(=O)N
 21 21  0  0  0  0  0  0  0  0999 V2000
   -3.6188    0.1208    2.3359 C   0  0  0  0  0  0  0  0  0  0  0  0
   -2.3521    0.0312    1.7163 O   0  0  0  0  0  0  0  0  0  0  0  0
   -1.2381    0.0742    2.4670 C   0  0  0  0  0  0  0  0  0  0  0  0
   -1.2509    0.1444    3.8649 C   0  0  0  0  0  0  0  0  0  0  0  0
   -0.0516    0.1549    4.5634 C   0  0  0  0  0  0  0  0  0  0  0  0
    1.1977    0.1040    3.9255 C   0  0  0  0  0  0  0  0  0  0  0  0
    1.1978    0.0000    2.5211 C   0  0  0  0  0  0  0  0  0  0  0  0
   -0.0000    0.0000    1.7691 C   0  0  0  0  0  0  0  0  0  0  0  0
    0.0000    0.0000    0.0000 S   0  0  0  0  0  0  0  0  0  0  0  0
    2.8339   -0.2251    1.5472 Br  0  0  0  0  0  0  0  0  0  0  0  0
    2.3686    0.1312    4.8933 C   0  0  0  0  0  0  0  0  0  0  0  0
    2.2220   -0.2908    6.0298 O   0  0  0  0  0  0  0  0  0  0  0  0
    3.5235    0.7195    4.4885 N   0  0  0  0  0  0  0  0  0  0  0  0
   -3.7307    1.0677    2.8914 H   0  0  0  0  0  0  0  0  0  0  0  0
   -3.7956   -0.7240    3.0235 H   0  0  0  0  0  0  0  0  0  0  0  0
   -4.3583    0.0873    1.5260 H   0  0  0  0  0  0  0  0  0  0  0  0
   -2.1901    0.1895    4.4142 H   0  0  0  0  0  0  0  0  0  0  0  0
   -0.0461    0.1915    5.6535 H   0  0  0  0  0  0  0  0  0  0  0  0
   -0.9642   -2.0347   -0.5037 Au  0  0  0  0  0  0  0  0  0  0  0  0
    3.6928    0.9646    3.5220 H   0  0  0  0  0  0  0  0  0  0  0  0
    4.3036    0.6822    5.1340 H   0  0  0  0  0  0  0  0  0  0  0  0
  1 14  1  0  0  0  0
  1 15  1  0  0  0  0
  2  1  1  0  0  0  0
  2  3  1  0  0  0  0
  3  4  1  0  0  0  0
  4 17  1  0  0  0  0
  4  5  2  0  0  0  0
  5 18  1  0  0  0  0
  6  5  1  0  0  0  0
  6 11  1  0  0  0  0
  7  6  2  0  0  0  0
  8  3  2  0  0  0  0
  8  7  1  0  0  0  0
  9  8  1  0  0  0  0
 10  7  1  0  0  0  0
 11 12  2  0  0  0  0
 13 11  1  0  0  0  0
 13 21  1  0  0  0  0
 16  1  1  0  0  0  0
 19  9  1  0  0  0  0
 20 13  1  0  0  0  0
M  END
