313134575.xyz
 OpenBabel07262113463D
[O-][N+](=O)c1c(Br)ccc(c1S)C(=O)Cl
 17 17  0  0  0  0  0  0  0  0999 V2000
    2.7913   -1.3274    1.4395 O   0  0  0  0  0  0  0  0  0  0  0  0
    2.4729   -0.1795    1.6862 N   0  0  0  0  0  0  0  0  0  0  0  0
    3.0770    0.8252    1.3775 O   0  0  0  0  0  0  0  0  0  0  0  0
    1.2281    0.0000    2.4661 C   0  0  0  0  0  0  0  0  0  0  0  0
    1.3139    0.1300    3.8538 C   0  0  0  0  0  0  0  0  0  0  0  0
    2.9875    0.0988    4.7372 Br  0  0  0  0  0  0  0  0  0  0  0  0
    0.1422    0.2917    4.5979 C   0  0  0  0  0  0  0  0  0  0  0  0
   -1.0874    0.3058    3.9470 C   0  0  0  0  0  0  0  0  0  0  0  0
   -1.1780    0.1408    2.5577 C   0  0  0  0  0  0  0  0  0  0  0  0
    0.0000    0.0000    1.7833 C   0  0  0  0  0  0  0  0  0  0  0  0
    0.0000    0.0000    0.0000 S   0  0  0  0  0  0  0  0  0  0  0  0
   -2.5238    0.0211    1.9219 C   0  0  0  0  0  0  0  0  0  0  0  0
   -2.8457   -0.7396    1.0717 O   0  0  0  0  0  0  0  0  0  0  0  0
   -3.7360    1.1796    2.6116 Cl  0  0  0  0  0  0  0  0  0  0  0  0
    0.2000    0.4048    5.6807 H   0  0  0  0  0  0  0  0  0  0  0  0
   -2.0023    0.4373    4.5249 H   0  0  0  0  0  0  0  0  0  0  0  0
   -0.0865   -2.2707   -0.3958 Au  0  0  0  0  0  0  0  0  0  0  0  0
  1  2  2  0  0  0  0
  2  4  1  0  0  0  0
  3  2  2  0  0  0  0
  4  5  1  0  0  0  0
  5  7  2  0  0  0  0
  5  6  1  0  0  0  0
  7 15  1  0  0  0  0
  8 16  1  0  0  0  0
  8  7  1  0  0  0  0
  9  8  2  0  0  0  0
 10  4  2  0  0  0  0
 10  9  1  0  0  0  0
 11 10  1  0  0  0  0
 12  9  1  0  0  0  0
 12 14  1  0  0  0  0
 13 12  2  0  0  0  0
 17 11  1  0  0  0  0
M  END
