313138663.xyz
 OpenBabel07262113463D
BrCC(=O)c1cc(Br)cc(c1[N+](=O)[O-])S
 20 20  0  0  0  0  0  0  0  0999 V2000
   -3.8233    0.1796    7.2994 Br  0  0  0  0  0  0  0  0  0  0  0  0
   -2.1460    0.1383    6.3315 C   0  0  0  0  0  0  0  0  0  0  0  0
   -2.3232    0.2530    4.8198 C   0  0  0  0  0  0  0  0  0  0  0  0
   -3.4011    0.4093    4.3017 O   0  0  0  0  0  0  0  0  0  0  0  0
   -1.0660    0.1577    3.9934 C   0  0  0  0  0  0  0  0  0  0  0  0
    0.2036    0.1671    4.5918 C   0  0  0  0  0  0  0  0  0  0  0  0
    1.3484    0.0966    3.7991 C   0  0  0  0  0  0  0  0  0  0  0  0
    3.0590    0.1074    4.6270 Br  0  0  0  0  0  0  0  0  0  0  0  0
    1.2565    0.0000    2.4124 C   0  0  0  0  0  0  0  0  0  0  0  0
    0.0000    0.0000    1.7785 C   0  0  0  0  0  0  0  0  0  0  0  0
   -1.1457    0.0899    2.5931 C   0  0  0  0  0  0  0  0  0  0  0  0
   -2.4594    0.0573    1.9178 N   0  0  0  0  0  0  0  0  0  0  0  0
   -2.9836   -1.0418    1.8116 O   0  0  0  0  0  0  0  0  0  0  0  0
   -2.8551    1.0921    1.4338 O   0  0  0  0  0  0  0  0  0  0  0  0
    0.0000    0.0000    0.0000 S   0  0  0  0  0  0  0  0  0  0  0  0
   -1.5327    0.9697    6.7056 H   0  0  0  0  0  0  0  0  0  0  0  0
   -1.6363   -0.8015    6.5843 H   0  0  0  0  0  0  0  0  0  0  0  0
    0.3113    0.2342    5.6726 H   0  0  0  0  0  0  0  0  0  0  0  0
    2.1555   -0.0837    1.8017 H   0  0  0  0  0  0  0  0  0  0  0  0
   -1.4298   -1.7406   -0.5291 Au  0  0  0  0  0  0  0  0  0  0  0  0
  2 17  1  0  0  0  0
  2 16  1  0  0  0  0
  2  1  1  0  0  0  0
  3  2  1  0  0  0  0
  4  3  2  0  0  0  0
  5  6  1  0  0  0  0
  5  3  1  0  0  0  0
  6 18  1  0  0  0  0
  7  6  2  0  0  0  0
  7  8  1  0  0  0  0
  9  7  1  0  0  0  0
 10  9  2  0  0  0  0
 10 11  1  0  0  0  0
 11  5  2  0  0  0  0
 12 11  1  0  0  0  0
 13 12  2  0  0  0  0
 14 12  2  0  0  0  0
 15 10  1  0  0  0  0
 19  9  1  0  0  0  0
 20 15  1  0  0  0  0
M  END
