313133291.xyz
 OpenBabel07262113463D
NC(=O)c1c(S)cc(cc1Br)[N+](=O)[O-]
 19 19  0  0  0  0  0  0  0  0999 V2000
    3.1641   -1.0314    1.6567 N   0  0  0  0  0  0  0  0  0  0  0  0
    2.5420    0.1377    1.9174 C   0  0  0  0  0  0  0  0  0  0  0  0
    3.0108    1.2329    1.6476 O   0  0  0  0  0  0  0  0  0  0  0  0
    1.1798    0.0000    2.5695 C   0  0  0  0  0  0  0  0  0  0  0  0
   -0.0000    0.0000    1.7850 C   0  0  0  0  0  0  0  0  0  0  0  0
    0.0000    0.0000    0.0000 S   0  0  0  0  0  0  0  0  0  0  0  0
   -1.2483   -0.0834    2.4201 C   0  0  0  0  0  0  0  0  0  0  0  0
   -1.3036   -0.1690    3.8066 C   0  0  0  0  0  0  0  0  0  0  0  0
   -0.1648   -0.1551    4.6059 C   0  0  0  0  0  0  0  0  0  0  0  0
    1.0717   -0.0639    3.9664 C   0  0  0  0  0  0  0  0  0  0  0  0
    2.6395   -0.0534    5.0518 Br  0  0  0  0  0  0  0  0  0  0  0  0
   -2.6272   -0.2634    4.4656 N   0  0  0  0  0  0  0  0  0  0  0  0
   -3.6111   -0.2744    3.7470 O   0  0  0  0  0  0  0  0  0  0  0  0
   -2.6428   -0.3259    5.6831 O   0  0  0  0  0  0  0  0  0  0  0  0
    2.7386   -1.9209    1.8810 H   0  0  0  0  0  0  0  0  0  0  0  0
    4.0695   -1.0118    1.2006 H   0  0  0  0  0  0  0  0  0  0  0  0
    1.2045    1.9277   -0.4477 Au  0  0  0  0  0  0  0  0  0  0  0  0
   -2.1702   -0.0745    1.8414 H   0  0  0  0  0  0  0  0  0  0  0  0
   -0.2549   -0.2143    5.6885 H   0  0  0  0  0  0  0  0  0  0  0  0
  1 15  1  0  0  0  0
  1  2  1  0  0  0  0
  2  4  1  0  0  0  0
  3  2  2  0  0  0  0
  4 10  2  0  0  0  0
  5  7  2  0  0  0  0
  5  4  1  0  0  0  0
  6  5  1  0  0  0  0
  7  8  1  0  0  0  0
  8 12  1  0  0  0  0
  8  9  2  0  0  0  0
  9 19  1  0  0  0  0
 10  9  1  0  0  0  0
 10 11  1  0  0  0  0
 12 14  2  0  0  0  0
 13 12  2  0  0  0  0
 16  1  1  0  0  0  0
 17  6  1  0  0  0  0
 18  7  1  0  0  0  0
M  END
