313171364.xyz
 OpenBabel07262113463D
FC(Oc1cc(Br)c(cc1C(=O)O)S)F
 20 20  0  0  0  0  0  0  0  0999 V2000
   -0.3962    0.2358    8.0116 F   0  0  0  0  0  0  0  0  0  0  0  0
   -0.3188    0.6934    6.7625 C   0  0  0  0  0  0  0  0  0  0  0  0
   -0.2002   -0.4129    5.9461 O   0  0  0  0  0  0  0  0  0  0  0  0
   -0.1780   -0.2124    4.5895 C   0  0  0  0  0  0  0  0  0  0  0  0
    1.0671   -0.1031    3.9698 C   0  0  0  0  0  0  0  0  0  0  0  0
    1.1601   -0.0000    2.5820 C   0  0  0  0  0  0  0  0  0  0  0  0
    2.8905    0.1596    1.8289 Br  0  0  0  0  0  0  0  0  0  0  0  0
   -0.0000    0.0000    1.7737 C   0  0  0  0  0  0  0  0  0  0  0  0
   -1.2401   -0.1006    2.4244 C   0  0  0  0  0  0  0  0  0  0  0  0
   -1.3574   -0.2034    3.8159 C   0  0  0  0  0  0  0  0  0  0  0  0
   -2.7048   -0.2665    4.4489 C   0  0  0  0  0  0  0  0  0  0  0  0
   -2.9585    0.0442    5.5901 O   0  0  0  0  0  0  0  0  0  0  0  0
   -3.6538   -0.6891    3.5928 O   0  0  0  0  0  0  0  0  0  0  0  0
    0.0000    0.0000    0.0000 S   0  0  0  0  0  0  0  0  0  0  0  0
    0.7991    1.4581    6.6591 F   0  0  0  0  0  0  0  0  0  0  0  0
   -1.1986    1.3061    6.5173 H   0  0  0  0  0  0  0  0  0  0  0  0
    1.9600   -0.1144    4.5930 H   0  0  0  0  0  0  0  0  0  0  0  0
   -2.1455   -0.0913    1.8188 H   0  0  0  0  0  0  0  0  0  0  0  0
   -4.4966   -0.6602    4.0770 H   0  0  0  0  0  0  0  0  0  0  0  0
    0.8935    2.0687   -0.5086 Au  0  0  0  0  0  0  0  0  0  0  0  0
  2  1  1  0  0  0  0
  3  2  1  0  0  0  0
  4  3  1  0  0  0  0
  5  4  1  0  0  0  0
  5 17  1  0  0  0  0
  6  5  2  0  0  0  0
  7  6  1  0  0  0  0
  8  9  2  0  0  0  0
  8  6  1  0  0  0  0
  9 10  1  0  0  0  0
 10 11  1  0  0  0  0
 10  4  2  0  0  0  0
 11 12  2  0  0  0  0
 13 19  1  0  0  0  0
 13 11  1  0  0  0  0
 14  8  1  0  0  0  0
 15  2  1  0  0  0  0
 16  2  1  0  0  0  0
 18  9  1  0  0  0  0
 20 14  1  0  0  0  0
M  END
