313196761.xyz
 OpenBabel07262113463D
FC(c1cc(Br)c(cc1Br)S)F
 16 16  0  0  0  0  0  0  0  0999 V2000
   -0.5355   -1.6376    6.4372 F   0  0  0  0  0  0  0  0  0  0  0  0
   -0.2801   -0.3445    6.1017 C   0  0  0  0  0  0  0  0  0  0  0  0
   -0.2026   -0.2013    4.5998 C   0  0  0  0  0  0  0  0  0  0  0  0
    1.0434   -0.0887    3.9779 C   0  0  0  0  0  0  0  0  0  0  0  0
    1.1524    0.0000    2.5900 C   0  0  0  0  0  0  0  0  0  0  0  0
    2.8961    0.1466    1.8551 Br  0  0  0  0  0  0  0  0  0  0  0  0
   -0.0000    0.0000    1.7734 C   0  0  0  0  0  0  0  0  0  0  0  0
   -1.2531   -0.0930    2.4100 C   0  0  0  0  0  0  0  0  0  0  0  0
   -1.3509   -0.2082    3.7936 C   0  0  0  0  0  0  0  0  0  0  0  0
   -3.0881   -0.3483    4.5683 Br  0  0  0  0  0  0  0  0  0  0  0  0
    0.0000    0.0000    0.0000 S   0  0  0  0  0  0  0  0  0  0  0  0
    0.9035   -0.0002    6.6747 F   0  0  0  0  0  0  0  0  0  0  0  0
   -1.0739    0.2834    6.5387 H   0  0  0  0  0  0  0  0  0  0  0  0
    1.9404   -0.0734    4.5959 H   0  0  0  0  0  0  0  0  0  0  0  0
   -2.1547   -0.0728    1.7978 H   0  0  0  0  0  0  0  0  0  0  0  0
    1.0591    1.9901   -0.5100 Au  0  0  0  0  0  0  0  0  0  0  0  0
  2  1  1  0  0  0  0
  2 13  1  0  0  0  0
  2 12  1  0  0  0  0
  3  2  1  0  0  0  0
  4 14  1  0  0  0  0
  4  3  1  0  0  0  0
  5  4  2  0  0  0  0
  6  5  1  0  0  0  0
  7  8  2  0  0  0  0
  7  5  1  0  0  0  0
  8  9  1  0  0  0  0
  9 10  1  0  0  0  0
  9  3  2  0  0  0  0
 11  7  1  0  0  0  0
 15  8  1  0  0  0  0
 16 11  1  0  0  0  0
M  END
