313154286.xyz
 OpenBabel07262113463D
COc1cc(OC(F)(F)F)c(c(c1)Br)S
 21 21  0  0  0  0  0  0  0  0999 V2000
   -1.2413    0.4110    6.6776 C   0  0  0  0  0  0  0  0  0  0  0  0
   -0.0372    0.3024    5.9448 O   0  0  0  0  0  0  0  0  0  0  0  0
   -0.0920    0.2011    4.6030 C   0  0  0  0  0  0  0  0  0  0  0  0
   -1.2827    0.1793    3.8638 C   0  0  0  0  0  0  0  0  0  0  0  0
   -1.2142    0.0784    2.4764 C   0  0  0  0  0  0  0  0  0  0  0  0
   -2.4033   -0.0215    1.7682 O   0  0  0  0  0  0  0  0  0  0  0  0
   -3.1386    1.0939    1.5592 C   0  0  0  0  0  0  0  0  0  0  0  0
   -4.1073    0.7914    0.7100 F   0  0  0  0  0  0  0  0  0  0  0  0
   -3.7034    1.5434    2.6990 F   0  0  0  0  0  0  0  0  0  0  0  0
   -2.4131    2.0996    1.0635 F   0  0  0  0  0  0  0  0  0  0  0  0
    0.0000    0.0000    1.7654 C   0  0  0  0  0  0  0  0  0  0  0  0
    1.1796    0.0000    2.5532 C   0  0  0  0  0  0  0  0  0  0  0  0
    1.1418    0.1007    3.9377 C   0  0  0  0  0  0  0  0  0  0  0  0
    2.8822   -0.1723    1.7338 Br  0  0  0  0  0  0  0  0  0  0  0  0
    0.0000    0.0000    0.0000 S   0  0  0  0  0  0  0  0  0  0  0  0
   -1.8785   -0.4805    6.5446 H   0  0  0  0  0  0  0  0  0  0  0  0
   -0.9554    0.4938    7.7337 H   0  0  0  0  0  0  0  0  0  0  0  0
   -1.8133    1.3087    6.3855 H   0  0  0  0  0  0  0  0  0  0  0  0
   -2.2616    0.2321    4.3333 H   0  0  0  0  0  0  0  0  0  0  0  0
    2.0573    0.1019    4.5283 H   0  0  0  0  0  0  0  0  0  0  0  0
    0.1970   -2.2475   -0.4866 Au  0  0  0  0  0  0  0  0  0  0  0  0
  1 17  1  0  0  0  0
  2  1  1  0  0  0  0
  3  2  1  0  0  0  0
  4 19  1  0  0  0  0
  4  3  2  0  0  0  0
  5  4  1  0  0  0  0
  6  5  1  0  0  0  0
  7  6  1  0  0  0  0
  7  9  1  0  0  0  0
  8  7  1  0  0  0  0
 10  7  1  0  0  0  0
 11  5  2  0  0  0  0
 11 12  1  0  0  0  0
 12 13  2  0  0  0  0
 13 20  1  0  0  0  0
 13  3  1  0  0  0  0
 14 12  1  0  0  0  0
 15 11  1  0  0  0  0
 16  1  1  0  0  0  0
 18  1  1  0  0  0  0
 21 15  1  0  0  0  0
M  END
