313193117.xyz
 OpenBabel07262113463D
N#Cc1c(S)cc(cc1Br)C(=O)Cl
 16 16  0  0  0  0  0  0  0  0999 V2000
    3.5440   -0.0024    1.7741 N   0  0  0  0  0  0  0  0  0  0  0  0
    2.4566   -0.0011    2.1921 C   0  0  0  0  0  0  0  0  0  0  0  0
    1.1094    0.0000    2.6623 C   0  0  0  0  0  0  0  0  0  0  0  0
    0.0000   -0.0000    1.7647 C   0  0  0  0  0  0  0  0  0  0  0  0
    0.0000    0.0000    0.0000 S   0  0  0  0  0  0  0  0  0  0  0  0
   -1.2969    0.0006    2.3230 C   0  0  0  0  0  0  0  0  0  0  0  0
   -1.4980    0.0013    3.6991 C   0  0  0  0  0  0  0  0  0  0  0  0
   -0.4042    0.0015    4.5858 C   0  0  0  0  0  0  0  0  0  0  0  0
    0.8766    0.0009    4.0633 C   0  0  0  0  0  0  0  0  0  0  0  0
    2.3491    0.0017    5.2596 Br  0  0  0  0  0  0  0  0  0  0  0  0
   -2.8532    0.0018    4.3292 C   0  0  0  0  0  0  0  0  0  0  0  0
   -3.0566    0.0022    5.5009 O   0  0  0  0  0  0  0  0  0  0  0  0
   -4.2354    0.0018    3.1747 Cl  0  0  0  0  0  0  0  0  0  0  0  0
    2.2182   -0.0069   -0.6545 Au  0  0  0  0  0  0  0  0  0  0  0  0
   -2.1586    0.0004    1.6568 H   0  0  0  0  0  0  0  0  0  0  0  0
   -0.5770    0.0021    5.6609 H   0  0  0  0  0  0  0  0  0  0  0  0
  1  2  3  0  0  0  0
  2  3  1  0  0  0  0
  3  9  2  0  0  0  0
  4  6  2  0  0  0  0
  4  3  1  0  0  0  0
  5  4  1  0  0  0  0
  6  7  1  0  0  0  0
  7 11  1  0  0  0  0
  7  8  2  0  0  0  0
  8 16  1  0  0  0  0
  9  8  1  0  0  0  0
  9 10  1  0  0  0  0
 11 12  2  0  0  0  0
 13 11  1  0  0  0  0
 14  5  1  0  0  0  0
 15  6  1  0  0  0  0
M  END
