313171410.xyz
 OpenBabel07262113463D
Brc1ccc(c(c1OC(F)(F)F)I)S
 17 17  0  0  0  0  0  0  0  0999 V2000
   -0.4181   -0.5314    6.4401 Br  0  0  0  0  0  0  0  0  0  0  0  0
   -0.2333   -0.2336    4.5784 C   0  0  0  0  0  0  0  0  0  0  0  0
   -1.3766   -0.2502    3.7756 C   0  0  0  0  0  0  0  0  0  0  0  0
   -1.2577   -0.0988    2.4003 C   0  0  0  0  0  0  0  0  0  0  0  0
    0.0000   -0.0000    1.7733 C   0  0  0  0  0  0  0  0  0  0  0  0
    1.1543   -0.0000    2.5908 C   0  0  0  0  0  0  0  0  0  0  0  0
    1.0304   -0.0538    3.9917 C   0  0  0  0  0  0  0  0  0  0  0  0
    2.1609   -0.0358    4.7876 O   0  0  0  0  0  0  0  0  0  0  0  0
    2.6101    1.1542    5.2802 C   0  0  0  0  0  0  0  0  0  0  0  0
    3.7731    0.9224    5.8656 F   0  0  0  0  0  0  0  0  0  0  0  0
    1.7726    1.6843    6.1765 F   0  0  0  0  0  0  0  0  0  0  0  0
    2.7758    2.0708    4.3196 F   0  0  0  0  0  0  0  0  0  0  0  0
    3.0947    0.0060    1.7441 I   0  0  0  0  0  0  0  0  0  0  0  0
    0.0000    0.0000    0.0000 S   0  0  0  0  0  0  0  0  0  0  0  0
   -2.3563   -0.3748    4.2378 H   0  0  0  0  0  0  0  0  0  0  0  0
   -2.1511   -0.0781    1.7744 H   0  0  0  0  0  0  0  0  0  0  0  0
    1.0424    2.0064   -0.5021 Au  0  0  0  0  0  0  0  0  0  0  0  0
  2  1  1  0  0  0  0
  3 15  1  0  0  0  0
  3  2  2  0  0  0  0
  4  3  1  0  0  0  0
  5  4  2  0  0  0  0
  5  6  1  0  0  0  0
  6  7  2  0  0  0  0
  7  2  1  0  0  0  0
  7  8  1  0  0  0  0
  8  9  1  0  0  0  0
  9 10  1  0  0  0  0
  9 11  1  0  0  0  0
 12  9  1  0  0  0  0
 13  6  1  0  0  0  0
 14  5  1  0  0  0  0
 16  4  1  0  0  0  0
 17 14  1  0  0  0  0
M  END
