313132756.xyz
 OpenBabel07262113463D
OCc1cc(F)c(cc1Br)S
 17 17  0  0  0  0  0  0  0  0999 V2000
   -1.2514    0.4000    6.5925 O   0  0  0  0  0  0  0  0  0  0  0  0
    0.0675    0.3284    6.1089 C   0  0  0  0  0  0  0  0  0  0  0  0
    0.0545    0.2123    4.6060 C   0  0  0  0  0  0  0  0  0  0  0  0
   -1.1607    0.1932    3.9126 C   0  0  0  0  0  0  0  0  0  0  0  0
   -1.1801    0.0985    2.5275 C   0  0  0  0  0  0  0  0  0  0  0  0
   -2.3619    0.0690    1.9055 F   0  0  0  0  0  0  0  0  0  0  0  0
    0.0000   -0.0000    1.7723 C   0  0  0  0  0  0  0  0  0  0  0  0
    1.2203   -0.0000    2.4694 C   0  0  0  0  0  0  0  0  0  0  0  0
    1.2390    0.1161    3.8571 C   0  0  0  0  0  0  0  0  0  0  0  0
    2.9319    0.1286    4.7475 Br  0  0  0  0  0  0  0  0  0  0  0  0
    0.0000    0.0000    0.0000 S   0  0  0  0  0  0  0  0  0  0  0  0
   -1.2200    0.4820    7.5524 H   0  0  0  0  0  0  0  0  0  0  0  0
    0.6625    1.2232    6.3836 H   0  0  0  0  0  0  0  0  0  0  0  0
    0.6172   -0.5421    6.5214 H   0  0  0  0  0  0  0  0  0  0  0  0
   -2.0958    0.2608    4.4672 H   0  0  0  0  0  0  0  0  0  0  0  0
    2.1507   -0.0897    1.9085 H   0  0  0  0  0  0  0  0  0  0  0  0
   -1.0851   -1.9655   -0.5188 Au  0  0  0  0  0  0  0  0  0  0  0  0
  1 12  1  0  0  0  0
  2 13  1  0  0  0  0
  2 14  1  0  0  0  0
  2  1  1  0  0  0  0
  3  2  1  0  0  0  0
  4 15  1  0  0  0  0
  4  3  1  0  0  0  0
  5  4  2  0  0  0  0
  6  5  1  0  0  0  0
  7  8  2  0  0  0  0
  7  5  1  0  0  0  0
  8  9  1  0  0  0  0
  9  3  2  0  0  0  0
  9 10  1  0  0  0  0
 11  7  1  0  0  0  0
 16  8  1  0  0  0  0
 17 11  1  0  0  0  0
M  END
