313134035.xyz
 OpenBabel07262113463D
Brc1cc(F)c(c(c1)C(=O)Cl)S
 15 15  0  0  0  0  0  0  0  0999 V2000
   -0.1964    0.0286    6.4904 Br  0  0  0  0  0  0  0  0  0  0  0  0
   -0.1168    0.0184    4.5950 C   0  0  0  0  0  0  0  0  0  0  0  0
   -1.3011    0.0399    3.8568 C   0  0  0  0  0  0  0  0  0  0  0  0
   -1.2247    0.0175    2.4675 C   0  0  0  0  0  0  0  0  0  0  0  0
   -2.3632    0.0032    1.7797 F   0  0  0  0  0  0  0  0  0  0  0  0
    0.0000   -0.0000    1.7745 C   0  0  0  0  0  0  0  0  0  0  0  0
    1.1722   -0.0000    2.5610 C   0  0  0  0  0  0  0  0  0  0  0  0
    1.1250   -0.0196    3.9570 C   0  0  0  0  0  0  0  0  0  0  0  0
    2.5100    0.0132    1.8940 C   0  0  0  0  0  0  0  0  0  0  0  0
    3.0322    0.8994    1.3169 O   0  0  0  0  0  0  0  0  0  0  0  0
    3.3536   -1.5999    2.0935 Cl  0  0  0  0  0  0  0  0  0  0  0  0
    0.0000    0.0000    0.0000 S   0  0  0  0  0  0  0  0  0  0  0  0
   -2.2793    0.0558    4.3374 H   0  0  0  0  0  0  0  0  0  0  0  0
    2.0456   -0.0587    4.5393 H   0  0  0  0  0  0  0  0  0  0  0  0
    0.9922   -2.0420   -0.4421 Au  0  0  0  0  0  0  0  0  0  0  0  0
  2  1  1  0  0  0  0
  3 13  1  0  0  0  0
  3  2  2  0  0  0  0
  4  3  1  0  0  0  0
  5  4  1  0  0  0  0
  6  4  2  0  0  0  0
  6  7  1  0  0  0  0
  7  8  2  0  0  0  0
  8 14  1  0  0  0  0
  8  2  1  0  0  0  0
  9 11  1  0  0  0  0
  9  7  1  0  0  0  0
 10  9  2  0  0  0  0
 12  6  1  0  0  0  0
 15 12  1  0  0  0  0
M  END
