313147037.xyz
 OpenBabel07262113463D
Sc1cc(Cl)c(c(c1)Br)C(=O)O
 16 16  0  0  0  0  0  0  0  0999 V2000
    0.0000    0.0000    0.0000 S   0  0  0  0  0  0  0  0  0  0  0  0
   -0.0000    0.0000    1.7856 C   0  0  0  0  0  0  0  0  0  0  0  0
   -1.2140   -0.0910    2.4795 C   0  0  0  0  0  0  0  0  0  0  0  0
   -1.2025   -0.1718    3.8710 C   0  0  0  0  0  0  0  0  0  0  0  0
   -2.7412   -0.2908    4.7014 Cl  0  0  0  0  0  0  0  0  0  0  0  0
   -0.0086   -0.1486    4.6134 C   0  0  0  0  0  0  0  0  0  0  0  0
    1.1963   -0.0614    3.8900 C   0  0  0  0  0  0  0  0  0  0  0  0
    1.2092   -0.0000    2.4974 C   0  0  0  0  0  0  0  0  0  0  0  0
    2.8708   -0.0743    4.7922 Br  0  0  0  0  0  0  0  0  0  0  0  0
   -0.0180   -0.1329    6.1295 C   0  0  0  0  0  0  0  0  0  0  0  0
    0.4057    0.7852    6.7695 O   0  0  0  0  0  0  0  0  0  0  0  0
   -0.5237   -1.2299    6.7206 O   0  0  0  0  0  0  0  0  0  0  0  0
    0.1726    2.2452   -0.4802 Au  0  0  0  0  0  0  0  0  0  0  0  0
   -2.1599   -0.0939    1.9389 H   0  0  0  0  0  0  0  0  0  0  0  0
    2.1555    0.0516    1.9598 H   0  0  0  0  0  0  0  0  0  0  0  0
   -0.8764   -1.8419    6.0577 H   0  0  0  0  0  0  0  0  0  0  0  0
  1  2  1  0  0  0  0
  2  3  2  0  0  0  0
  2  8  1  0  0  0  0
  3  4  1  0  0  0  0
  4  6  2  0  0  0  0
  4  5  1  0  0  0  0
  6 10  1  0  0  0  0
  7  6  1  0  0  0  0
  7  9  1  0  0  0  0
  8  7  2  0  0  0  0
 10 12  1  0  0  0  0
 10 11  2  0  0  0  0
 13  1  1  0  0  0  0
 14  3  1  0  0  0  0
 15  8  1  0  0  0  0
 16 12  1  0  0  0  0
M  END
