313170137.xyz
 OpenBabel07262113463D
NC(=O)c1cc(S)c(c(c1)Br)I
 17 17  0  0  0  0  0  0  0  0999 V2000
   -3.7885    0.6593    3.7087 N   0  0  0  0  0  0  0  0  0  0  0  0
   -2.7220    0.3044    4.4846 C   0  0  0  0  0  0  0  0  0  0  0  0
   -2.8248    0.0718    5.6760 O   0  0  0  0  0  0  0  0  0  0  0  0
   -1.3941    0.2037    3.7762 C   0  0  0  0  0  0  0  0  0  0  0  0
   -1.2623    0.0897    2.3918 C   0  0  0  0  0  0  0  0  0  0  0  0
    0.0000    0.0000    1.7771 C   0  0  0  0  0  0  0  0  0  0  0  0
    0.0000    0.0000    0.0000 S   0  0  0  0  0  0  0  0  0  0  0  0
    1.1608    0.0000    2.5924 C   0  0  0  0  0  0  0  0  0  0  0  0
    1.0158    0.0741    3.9915 C   0  0  0  0  0  0  0  0  0  0  0  0
   -0.2473    0.1761    4.5749 C   0  0  0  0  0  0  0  0  0  0  0  0
    2.5032    0.0514    5.1773 Br  0  0  0  0  0  0  0  0  0  0  0  0
    3.0808   -0.1479    1.7201 I   0  0  0  0  0  0  0  0  0  0  0  0
   -3.6709    1.0679    2.7919 H   0  0  0  0  0  0  0  0  0  0  0  0
   -4.6745    0.7943    4.1816 H   0  0  0  0  0  0  0  0  0  0  0  0
   -2.1379    0.0380    1.7440 H   0  0  0  0  0  0  0  0  0  0  0  0
    0.9060   -2.0701   -0.5044 Au  0  0  0  0  0  0  0  0  0  0  0  0
   -0.3632    0.2283    5.6574 H   0  0  0  0  0  0  0  0  0  0  0  0
  1 14  1  0  0  0  0
  1  2  1  0  0  0  0
  2  3  2  0  0  0  0
  4  2  1  0  0  0  0
  4 10  2  0  0  0  0
  5  4  1  0  0  0  0
  6  5  2  0  0  0  0
  6  8  1  0  0  0  0
  7  6  1  0  0  0  0
  8  9  2  0  0  0  0
  9 10  1  0  0  0  0
  9 11  1  0  0  0  0
 10 17  1  0  0  0  0
 12  8  1  0  0  0  0
 13  1  1  0  0  0  0
 15  5  1  0  0  0  0
 16  7  1  0  0  0  0
M  END
