313145010.xyz
 OpenBabel07262113463D
FC(c1cc(C(=O)Cl)c(cc1Br)S)F
 18 18  0  0  0  0  0  0  0  0999 V2000
    0.5868    1.2426    6.5513 F   0  0  0  0  0  0  0  0  0  0  0  0
    0.2345    0.0016    6.1207 C   0  0  0  0  0  0  0  0  0  0  0  0
    0.1692   -0.0277    4.6117 C   0  0  0  0  0  0  0  0  0  0  0  0
   -1.0698   -0.0019    3.9680 C   0  0  0  0  0  0  0  0  0  0  0  0
   -1.1659   -0.0263    2.5755 C   0  0  0  0  0  0  0  0  0  0  0  0
   -2.5174   -0.0994    1.9510 C   0  0  0  0  0  0  0  0  0  0  0  0
   -2.9923   -0.9806    1.3258 O   0  0  0  0  0  0  0  0  0  0  0  0
   -3.4790    1.4335    2.2722 Cl  0  0  0  0  0  0  0  0  0  0  0  0
    0.0000   -0.0000    1.7793 C   0  0  0  0  0  0  0  0  0  0  0  0
    1.2471    0.0000    2.4256 C   0  0  0  0  0  0  0  0  0  0  0  0
    1.3258   -0.0359    3.8169 C   0  0  0  0  0  0  0  0  0  0  0  0
    3.0540   -0.0567    4.6179 Br  0  0  0  0  0  0  0  0  0  0  0  0
    0.0000    0.0000    0.0000 S   0  0  0  0  0  0  0  0  0  0  0  0
   -0.9830   -0.2852    6.6522 F   0  0  0  0  0  0  0  0  0  0  0  0
    0.9675   -0.7182    6.5206 H   0  0  0  0  0  0  0  0  0  0  0  0
   -1.9752    0.0160    4.5753 H   0  0  0  0  0  0  0  0  0  0  0  0
    2.1574    0.0445    1.8276 H   0  0  0  0  0  0  0  0  0  0  0  0
   -1.4419    1.7442   -0.4749 Au  0  0  0  0  0  0  0  0  0  0  0  0
  2 15  1  0  0  0  0
  2  1  1  0  0  0  0
  2 14  1  0  0  0  0
  3  2  1  0  0  0  0
  4 16  1  0  0  0  0
  4  3  1  0  0  0  0
  5  4  2  0  0  0  0
  6  8  1  0  0  0  0
  6  5  1  0  0  0  0
  7  6  2  0  0  0  0
  9 10  2  0  0  0  0
  9  5  1  0  0  0  0
 10 11  1  0  0  0  0
 11  3  2  0  0  0  0
 11 12  1  0  0  0  0
 13  9  1  0  0  0  0
 17 10  1  0  0  0  0
 18 13  1  0  0  0  0
M  END
