313144290.xyz
 OpenBabel07262113463D
BrCc1c(S)ccc(c1Br)C(F)(F)F
 19 19  0  0  0  0  0  0  0  0999 V2000
    3.2783    1.8707    1.7607 Br  0  0  0  0  0  0  0  0  0  0  0  0
    2.5216    0.0072    1.9488 C   0  0  0  0  0  0  0  0  0  0  0  0
    1.1782    0.0000    2.5853 C   0  0  0  0  0  0  0  0  0  0  0  0
   -0.0000    0.0000    1.7859 C   0  0  0  0  0  0  0  0  0  0  0  0
    0.0000    0.0000    0.0000 S   0  0  0  0  0  0  0  0  0  0  0  0
   -1.2540   -0.0720    2.4092 C   0  0  0  0  0  0  0  0  0  0  0  0
   -1.3597   -0.1344    3.7928 C   0  0  0  0  0  0  0  0  0  0  0  0
   -0.2213   -0.1021    4.6051 C   0  0  0  0  0  0  0  0  0  0  0  0
    1.0396   -0.0272    3.9892 C   0  0  0  0  0  0  0  0  0  0  0  0
    2.6147    0.0485    5.0688 Br  0  0  0  0  0  0  0  0  0  0  0  0
   -0.4020   -0.1455    6.1096 C   0  0  0  0  0  0  0  0  0  0  0  0
    0.2045   -1.2099    6.6581 F   0  0  0  0  0  0  0  0  0  0  0  0
   -1.7040   -0.2246    6.4381 F   0  0  0  0  0  0  0  0  0  0  0  0
    0.0857    0.9527    6.7073 F   0  0  0  0  0  0  0  0  0  0  0  0
    2.4836   -0.3722    0.9239 H   0  0  0  0  0  0  0  0  0  0  0  0
    3.2819   -0.5040    2.5438 H   0  0  0  0  0  0  0  0  0  0  0  0
    1.1741    1.9773   -0.3825 Au  0  0  0  0  0  0  0  0  0  0  0  0
   -2.1513   -0.0655    1.7893 H   0  0  0  0  0  0  0  0  0  0  0  0
   -2.3422   -0.1901    4.2609 H   0  0  0  0  0  0  0  0  0  0  0  0
  1  2  1  0  0  0  0
  2 16  1  0  0  0  0
  2  3  1  0  0  0  0
  3  9  2  0  0  0  0
  4  6  2  0  0  0  0
  4  3  1  0  0  0  0
  5  4  1  0  0  0  0
  6  7  1  0  0  0  0
  7 19  1  0  0  0  0
  7  8  2  0  0  0  0
  8 11  1  0  0  0  0
  9  8  1  0  0  0  0
  9 10  1  0  0  0  0
 11 13  1  0  0  0  0
 11 12  1  0  0  0  0
 11 14  1  0  0  0  0
 15  2  1  0  0  0  0
 17  5  1  0  0  0  0
 18  6  1  0  0  0  0
M  END
