313177260.xyz
 OpenBabel07262113463D
FC(Oc1ccc(c(c1S)Br)OC(F)(F)F)F
 21 21  0  0  0  0  0  0  0  0999 V2000
    2.5031    1.8763    0.6871 F   0  0  0  0  0  0  0  0  0  0  0  0
    3.1371    1.0427    1.5415 C   0  0  0  0  0  0  0  0  0  0  0  0
    2.4077   -0.1074    1.7269 O   0  0  0  0  0  0  0  0  0  0  0  0
    1.2423    0.0000    2.4504 C   0  0  0  0  0  0  0  0  0  0  0  0
    1.3180    0.0622    3.8410 C   0  0  0  0  0  0  0  0  0  0  0  0
    0.1532    0.1250    4.6011 C   0  0  0  0  0  0  0  0  0  0  0  0
   -1.0849    0.1108    3.9617 C   0  0  0  0  0  0  0  0  0  0  0  0
   -1.1729    0.0575    2.5628 C   0  0  0  0  0  0  0  0  0  0  0  0
   -0.0000   -0.0000    1.7719 C   0  0  0  0  0  0  0  0  0  0  0  0
    0.0000    0.0000    0.0000 S   0  0  0  0  0  0  0  0  0  0  0  0
   -2.8906    0.0457    1.7758 Br  0  0  0  0  0  0  0  0  0  0  0  0
   -2.2467    0.2140    4.7124 O   0  0  0  0  0  0  0  0  0  0  0  0
   -2.6739   -0.8780    5.3936 C   0  0  0  0  0  0  0  0  0  0  0  0
   -2.7601   -1.9594    4.6126 F   0  0  0  0  0  0  0  0  0  0  0  0
   -1.8499   -1.1905    6.4094 F   0  0  0  0  0  0  0  0  0  0  0  0
   -3.8675   -0.6023    5.8923 F   0  0  0  0  0  0  0  0  0  0  0  0
    4.3002    0.6817    0.9968 F   0  0  0  0  0  0  0  0  0  0  0  0
    3.3123    1.5929    2.4851 H   0  0  0  0  0  0  0  0  0  0  0  0
    2.2971    0.0426    4.3223 H   0  0  0  0  0  0  0  0  0  0  0  0
    0.1882    0.1776    5.6889 H   0  0  0  0  0  0  0  0  0  0  0  0
   -1.0138   -2.0239   -0.4642 Au  0  0  0  0  0  0  0  0  0  0  0  0
  1  2  1  0  0  0  0
  2  3  1  0  0  0  0
  2 18  1  0  0  0  0
  3  4  1  0  0  0  0
  4  5  1  0  0  0  0
  5 19  1  0  0  0  0
  5  6  2  0  0  0  0
  6 20  1  0  0  0  0
  7  6  1  0  0  0  0
  7 12  1  0  0  0  0
  8  7  2  0  0  0  0
  9  4  2  0  0  0  0
  9  8  1  0  0  0  0
 10  9  1  0  0  0  0
 11  8  1  0  0  0  0
 12 13  1  0  0  0  0
 13 16  1  0  0  0  0
 13 15  1  0  0  0  0
 14 13  1  0  0  0  0
 17  2  1  0  0  0  0
 21 10  1  0  0  0  0
M  END
