313133267.xyz
 OpenBabel07262113463D
ClC(=O)c1cc(F)c(cc1S)Br
 15 15  0  0  0  0  0  0  0  0999 V2000
   -3.4525    1.4817    2.2397 Cl  0  0  0  0  0  0  0  0  0  0  0  0
   -2.5192   -0.0623    1.9139 C   0  0  0  0  0  0  0  0  0  0  0  0
   -2.9968   -0.9265    1.2677 O   0  0  0  0  0  0  0  0  0  0  0  0
   -1.1763   -0.0224    2.5622 C   0  0  0  0  0  0  0  0  0  0  0  0
   -1.1034   -0.0041    3.9575 C   0  0  0  0  0  0  0  0  0  0  0  0
    0.1361   -0.0365    4.5863 C   0  0  0  0  0  0  0  0  0  0  0  0
    0.1908   -0.0493    5.9153 F   0  0  0  0  0  0  0  0  0  0  0  0
    1.3153   -0.0420    3.8314 C   0  0  0  0  0  0  0  0  0  0  0  0
    1.2412   -0.0000    2.4393 C   0  0  0  0  0  0  0  0  0  0  0  0
   -0.0000   -0.0000    1.7808 C   0  0  0  0  0  0  0  0  0  0  0  0
    0.0000    0.0000    0.0000 S   0  0  0  0  0  0  0  0  0  0  0  0
    2.9880   -0.0642    4.7131 Br  0  0  0  0  0  0  0  0  0  0  0  0
   -2.0049    0.0231    4.5714 H   0  0  0  0  0  0  0  0  0  0  0  0
    2.1575    0.0443    1.8502 H   0  0  0  0  0  0  0  0  0  0  0  0
   -1.2161    1.9081   -0.4712 Au  0  0  0  0  0  0  0  0  0  0  0  0
  2  1  1  0  0  0  0
  2  4  1  0  0  0  0
  3  2  2  0  0  0  0
  4  5  2  0  0  0  0
  5 13  1  0  0  0  0
  5  6  1  0  0  0  0
  6  7  1  0  0  0  0
  8  6  2  0  0  0  0
  8 12  1  0  0  0  0
  9  8  1  0  0  0  0
 10  9  2  0  0  0  0
 10  4  1  0  0  0  0
 11 10  1  0  0  0  0
 14  9  1  0  0  0  0
 15 11  1  0  0  0  0
M  END
