313171932.xyz
 OpenBabel07262113463D
Sc1cc(Br)c(c(c1)C(=O)Cl)I
 15 15  0  0  0  0  0  0  0  0999 V2000
    0.0000    0.0000    0.0000 S   0  0  0  0  0  0  0  0  0  0  0  0
    0.0000    0.0000    1.7830 C   0  0  0  0  0  0  0  0  0  0  0  0
    1.2139    0.0000    2.4819 C   0  0  0  0  0  0  0  0  0  0  0  0
    1.2309   -0.0924    3.8774 C   0  0  0  0  0  0  0  0  0  0  0  0
    2.9306   -0.1173    4.7235 Br  0  0  0  0  0  0  0  0  0  0  0  0
    0.0296   -0.1609    4.6050 C   0  0  0  0  0  0  0  0  0  0  0  0
   -1.1874   -0.1410    3.8966 C   0  0  0  0  0  0  0  0  0  0  0  0
   -1.2008   -0.0887    2.5005 C   0  0  0  0  0  0  0  0  0  0  0  0
   -2.5330   -0.1883    4.5591 C   0  0  0  0  0  0  0  0  0  0  0  0
   -3.3156   -1.0750    4.4883 O   0  0  0  0  0  0  0  0  0  0  0  0
   -2.9434    1.3616    5.3810 Cl  0  0  0  0  0  0  0  0  0  0  0  0
    0.0168   -0.3851    6.7083 I   0  0  0  0  0  0  0  0  0  0  0  0
   -0.3547    2.2227   -0.4890 Au  0  0  0  0  0  0  0  0  0  0  0  0
    2.1529    0.0670    1.9327 H   0  0  0  0  0  0  0  0  0  0  0  0
   -2.1514   -0.1013    1.9656 H   0  0  0  0  0  0  0  0  0  0  0  0
  1  2  1  0  0  0  0
  2  3  2  0  0  0  0
  2  8  1  0  0  0  0
  3  4  1  0  0  0  0
  4  6  2  0  0  0  0
  4  5  1  0  0  0  0
  6 12  1  0  0  0  0
  7  9  1  0  0  0  0
  7  6  1  0  0  0  0
  8  7  2  0  0  0  0
  9 11  1  0  0  0  0
 10  9  2  0  0  0  0
 13  1  1  0  0  0  0
 14  3  1  0  0  0  0
 15  8  1  0  0  0  0
M  END
