313146015.xyz
 OpenBabel07262113463D
Sc1cc(Br)c(c(c1)C(=O)Cl)Cl
 15 15  0  0  0  0  0  0  0  0999 V2000
    0.0000    0.0000    0.0000 S   0  0  0  0  0  0  0  0  0  0  0  0
    0.0000   -0.0000    1.7832 C   0  0  0  0  0  0  0  0  0  0  0  0
    1.2119   -0.0000    2.4880 C   0  0  0  0  0  0  0  0  0  0  0  0
    1.2201   -0.0584    3.8829 C   0  0  0  0  0  0  0  0  0  0  0  0
    2.8907   -0.0069    4.7782 Br  0  0  0  0  0  0  0  0  0  0  0  0
    0.0139   -0.1406    4.6021 C   0  0  0  0  0  0  0  0  0  0  0  0
   -1.2019   -0.1730    3.8913 C   0  0  0  0  0  0  0  0  0  0  0  0
   -1.2035   -0.0777    2.4961 C   0  0  0  0  0  0  0  0  0  0  0  0
   -2.5495   -0.2732    4.5372 C   0  0  0  0  0  0  0  0  0  0  0  0
   -3.4589    0.4622    4.3322 O   0  0  0  0  0  0  0  0  0  0  0  0
   -2.7529   -1.7342    5.5588 Cl  0  0  0  0  0  0  0  0  0  0  0  0
    0.0190   -0.1298    6.3328 Cl  0  0  0  0  0  0  0  0  0  0  0  0
   -0.1739    2.2435   -0.4922 Au  0  0  0  0  0  0  0  0  0  0  0  0
    2.1544    0.0603    1.9439 H   0  0  0  0  0  0  0  0  0  0  0  0
   -2.1530   -0.0729    1.9600 H   0  0  0  0  0  0  0  0  0  0  0  0
  1  2  1  0  0  0  0
  2  3  2  0  0  0  0
  2  8  1  0  0  0  0
  3  4  1  0  0  0  0
  4  6  2  0  0  0  0
  4  5  1  0  0  0  0
  6 12  1  0  0  0  0
  7  9  1  0  0  0  0
  7  6  1  0  0  0  0
  8  7  2  0  0  0  0
  9 11  1  0  0  0  0
 10  9  2  0  0  0  0
 13  1  1  0  0  0  0
 14  3  1  0  0  0  0
 15  8  1  0  0  0  0
M  END
