313133523.xyz
 OpenBabel07262113463D
Brc1cc(S)c(c(c1)C(=O)Cl)F
 15 15  0  0  0  0  0  0  0  0999 V2000
    2.9333   -0.1406    4.7477 Br  0  0  0  0  0  0  0  0  0  0  0  0
    1.2583   -0.1252    3.8462 C   0  0  0  0  0  0  0  0  0  0  0  0
    1.2267   -0.0000    2.4557 C   0  0  0  0  0  0  0  0  0  0  0  0
    0.0000   -0.0000    1.7754 C   0  0  0  0  0  0  0  0  0  0  0  0
    0.0000    0.0000    0.0000 S   0  0  0  0  0  0  0  0  0  0  0  0
   -1.1861   -0.1021    2.5252 C   0  0  0  0  0  0  0  0  0  0  0  0
   -1.1634   -0.2014    3.9295 C   0  0  0  0  0  0  0  0  0  0  0  0
    0.0822   -0.2243    4.5824 C   0  0  0  0  0  0  0  0  0  0  0  0
   -2.4523   -0.2640    4.6733 C   0  0  0  0  0  0  0  0  0  0  0  0
   -3.5373   -0.0793    4.2303 O   0  0  0  0  0  0  0  0  0  0  0  0
   -2.2729   -0.6758    6.4361 Cl  0  0  0  0  0  0  0  0  0  0  0  0
   -2.3414   -0.0842    1.8773 F   0  0  0  0  0  0  0  0  0  0  0  0
    2.1497    0.0971    1.8834 H   0  0  0  0  0  0  0  0  0  0  0  0
   -1.2749    1.8466   -0.5232 Au  0  0  0  0  0  0  0  0  0  0  0  0
    0.1109   -0.3112    5.6663 H   0  0  0  0  0  0  0  0  0  0  0  0
  2  8  2  0  0  0  0
  2  1  1  0  0  0  0
  3  2  1  0  0  0  0
  4  3  2  0  0  0  0
  4  6  1  0  0  0  0
  5  4  1  0  0  0  0
  6  7  2  0  0  0  0
  7  8  1  0  0  0  0
  7  9  1  0  0  0  0
  8 15  1  0  0  0  0
  9 11  1  0  0  0  0
 10  9  2  0  0  0  0
 12  6  1  0  0  0  0
 13  3  1  0  0  0  0
 14  5  1  0  0  0  0
M  END
