313144242.xyz
 OpenBabel07262113463D
Brc1cc(C(F)F)c(c(c1)S)C(=O)Cl
 18 18  0  0  0  0  0  0  0  0999 V2000
    3.0778    0.0803    4.6022 Br  0  0  0  0  0  0  0  0  0  0  0  0
    1.3618    0.0537    3.7867 C   0  0  0  0  0  0  0  0  0  0  0  0
    0.2204    0.0568    4.5911 C   0  0  0  0  0  0  0  0  0  0  0  0
   -1.0376    0.0313    3.9890 C   0  0  0  0  0  0  0  0  0  0  0  0
   -2.2784    0.0116    4.8608 C   0  0  0  0  0  0  0  0  0  0  0  0
   -3.0570    1.0934    4.5751 F   0  0  0  0  0  0  0  0  0  0  0  0
   -1.9450    0.0743    6.1737 F   0  0  0  0  0  0  0  0  0  0  0  0
   -1.1593    0.0373    2.5863 C   0  0  0  0  0  0  0  0  0  0  0  0
    0.0000    0.0000    1.7815 C   0  0  0  0  0  0  0  0  0  0  0  0
    1.2630    0.0000    2.3988 C   0  0  0  0  0  0  0  0  0  0  0  0
    0.0000    0.0000    0.0000 S   0  0  0  0  0  0  0  0  0  0  0  0
   -2.5362    0.0215    1.9969 C   0  0  0  0  0  0  0  0  0  0  0  0
   -3.3318   -0.8546    2.1397 O   0  0  0  0  0  0  0  0  0  0  0  0
   -2.9449    1.4999    1.0893 Cl  0  0  0  0  0  0  0  0  0  0  0  0
    0.3010    0.0718    5.6765 H   0  0  0  0  0  0  0  0  0  0  0  0
   -2.8871   -0.8926    4.6991 H   0  0  0  0  0  0  0  0  0  0  0  0
    2.1589   -0.0561    1.7803 H   0  0  0  0  0  0  0  0  0  0  0  0
   -1.4294   -1.7227   -0.5508 Au  0  0  0  0  0  0  0  0  0  0  0  0
  2  3  2  0  0  0  0
  2  1  1  0  0  0  0
  3 15  1  0  0  0  0
  4  3  1  0  0  0  0
  4  5  1  0  0  0  0
  5  7  1  0  0  0  0
  6  5  1  0  0  0  0
  8  4  2  0  0  0  0
  9 10  2  0  0  0  0
  9  8  1  0  0  0  0
 10  2  1  0  0  0  0
 11  9  1  0  0  0  0
 12 13  2  0  0  0  0
 12  8  1  0  0  0  0
 14 12  1  0  0  0  0
 16  5  1  0  0  0  0
 17 10  1  0  0  0  0
 18 11  1  0  0  0  0
M  END
