313146309.xyz
 OpenBabel07262113463D
CCOc1cc(Br)c(cc1CBr)S
 23 23  0  0  0  0  0  0  0  0999 V2000
   -0.2482   -0.6537    8.1898 C   0  0  0  0  0  0  0  0  0  0  0  0
   -0.7766   -0.4862    6.7808 C   0  0  0  0  0  0  0  0  0  0  0  0
    0.3391   -0.2732    5.9237 O   0  0  0  0  0  0  0  0  0  0  0  0
    0.1685   -0.1840    4.5924 C   0  0  0  0  0  0  0  0  0  0  0  0
   -1.0813   -0.1695    3.9615 C   0  0  0  0  0  0  0  0  0  0  0  0
   -1.1580   -0.0850    2.5684 C   0  0  0  0  0  0  0  0  0  0  0  0
   -2.8912   -0.0449    1.7941 Br  0  0  0  0  0  0  0  0  0  0  0  0
   -0.0000   -0.0000    1.7692 C   0  0  0  0  0  0  0  0  0  0  0  0
    1.2414    0.0000    2.4380 C   0  0  0  0  0  0  0  0  0  0  0  0
    1.3534   -0.0950    3.8212 C   0  0  0  0  0  0  0  0  0  0  0  0
    2.6790   -0.1235    4.4970 C   0  0  0  0  0  0  0  0  0  0  0  0
    3.2145   -1.9790    4.9962 Br  0  0  0  0  0  0  0  0  0  0  0  0
    0.0000    0.0000    0.0000 S   0  0  0  0  0  0  0  0  0  0  0  0
    0.4496   -1.5029    8.2375 H   0  0  0  0  0  0  0  0  0  0  0  0
   -1.0788   -0.8381    8.8878 H   0  0  0  0  0  0  0  0  0  0  0  0
    0.2865    0.2518    8.5144 H   0  0  0  0  0  0  0  0  0  0  0  0
   -1.3249   -1.3871    6.4515 H   0  0  0  0  0  0  0  0  0  0  0  0
   -1.4691    0.3728    6.7120 H   0  0  0  0  0  0  0  0  0  0  0  0
   -2.0019   -0.2249    4.5380 H   0  0  0  0  0  0  0  0  0  0  0  0
    2.1467    0.0709    1.8317 H   0  0  0  0  0  0  0  0  0  0  0  0
    2.6743    0.4193    5.4472 H   0  0  0  0  0  0  0  0  0  0  0  0
    3.4815    0.2398    3.8470 H   0  0  0  0  0  0  0  0  0  0  0  0
   -0.8145    2.0977   -0.5268 Au  0  0  0  0  0  0  0  0  0  0  0  0
  1 14  1  0  0  0  0
  1 16  1  0  0  0  0
  1 15  1  0  0  0  0
  2  1  1  0  0  0  0
  3  2  1  0  0  0  0
  4  3  1  0  0  0  0
  5 19  1  0  0  0  0
  5  4  1  0  0  0  0
  6  5  2  0  0  0  0
  7  6  1  0  0  0  0
  8  9  2  0  0  0  0
  8  6  1  0  0  0  0
  9 10  1  0  0  0  0
 10 11  1  0  0  0  0
 10  4  2  0  0  0  0
 11 12  1  0  0  0  0
 11 21  1  0  0  0  0
 13  8  1  0  0  0  0
 17  2  1  0  0  0  0
 18  2  1  0  0  0  0
 20  9  1  0  0  0  0
 22 11  1  0  0  0  0
 23 13  1  0  0  0  0
M  END
