313186186.xyz
 OpenBabel07262113463D
FC(Oc1cc(Br)c(cc1S)Cl)F
 17 17  0  0  0  0  0  0  0  0999 V2000
   -3.4916   -1.9191    2.3935 F   0  0  0  0  0  0  0  0  0  0  0  0
   -2.9277   -1.1661    1.4215 C   0  0  0  0  0  0  0  0  0  0  0  0
   -2.4161   -0.0095    1.9671 O   0  0  0  0  0  0  0  0  0  0  0  0
   -1.1723   -0.0945    2.5550 C   0  0  0  0  0  0  0  0  0  0  0  0
   -1.1047   -0.1937    3.9412 C   0  0  0  0  0  0  0  0  0  0  0  0
    0.1332   -0.2135    4.5901 C   0  0  0  0  0  0  0  0  0  0  0  0
    0.1761   -0.3622    6.4761 Br  0  0  0  0  0  0  0  0  0  0  0  0
    1.3120   -0.1185    3.8313 C   0  0  0  0  0  0  0  0  0  0  0  0
    1.2349    0.0000    2.4413 C   0  0  0  0  0  0  0  0  0  0  0  0
   -0.0000   -0.0000    1.7756 C   0  0  0  0  0  0  0  0  0  0  0  0
    0.0000    0.0000    0.0000 S   0  0  0  0  0  0  0  0  0  0  0  0
    2.8784   -0.1244    4.5820 Cl  0  0  0  0  0  0  0  0  0  0  0  0
   -3.8929   -0.7977    0.5698 F   0  0  0  0  0  0  0  0  0  0  0  0
   -2.1630   -1.7645    0.9003 H   0  0  0  0  0  0  0  0  0  0  0  0
   -2.0326   -0.2613    4.5084 H   0  0  0  0  0  0  0  0  0  0  0  0
    2.1548    0.0950    1.8641 H   0  0  0  0  0  0  0  0  0  0  0  0
   -1.5018    1.6740   -0.5315 Au  0  0  0  0  0  0  0  0  0  0  0  0
  2  3  1  0  0  0  0
  2  1  1  0  0  0  0
  3  4  1  0  0  0  0
  4  5  2  0  0  0  0
  5 15  1  0  0  0  0
  5  6  1  0  0  0  0
  6  7  1  0  0  0  0
  8 12  1  0  0  0  0
  8  6  2  0  0  0  0
  9  8  1  0  0  0  0
 10  9  2  0  0  0  0
 10  4  1  0  0  0  0
 11 10  1  0  0  0  0
 13  2  1  0  0  0  0
 14  2  1  0  0  0  0
 16  9  1  0  0  0  0
 17 11  1  0  0  0  0
M  END
