313191893.xyz
 OpenBabel07262113463D
COc1c(S)ccc(c1Br)C(=O)Cl
 19 19  0  0  0  0  0  0  0  0999 V2000
    3.0098    1.0749    1.4986 C   0  0  0  0  0  0  0  0  0  0  0  0
    2.3935   -0.1362    1.9413 O   0  0  0  0  0  0  0  0  0  0  0  0
    1.1849    0.0000    2.5460 C   0  0  0  0  0  0  0  0  0  0  0  0
   -0.0000   -0.0000    1.7727 C   0  0  0  0  0  0  0  0  0  0  0  0
    0.0000    0.0000    0.0000 S   0  0  0  0  0  0  0  0  0  0  0  0
   -1.2413    0.0638    2.4267 C   0  0  0  0  0  0  0  0  0  0  0  0
   -1.3074    0.1399    3.8094 C   0  0  0  0  0  0  0  0  0  0  0  0
   -0.1455    0.1451    4.6015 C   0  0  0  0  0  0  0  0  0  0  0  0
    1.1084    0.0689    3.9490 C   0  0  0  0  0  0  0  0  0  0  0  0
    2.7575   -0.0046    4.8885 Br  0  0  0  0  0  0  0  0  0  0  0  0
   -0.2486    0.2853    6.0794 C   0  0  0  0  0  0  0  0  0  0  0  0
    0.5614    0.7287    6.8236 O   0  0  0  0  0  0  0  0  0  0  0  0
   -1.8292   -0.3229    6.7618 Cl  0  0  0  0  0  0  0  0  0  0  0  0
    3.9403    0.7843    0.9941 H   0  0  0  0  0  0  0  0  0  0  0  0
    3.2456    1.7227    2.3582 H   0  0  0  0  0  0  0  0  0  0  0  0
    2.3584    1.6076    0.7882 H   0  0  0  0  0  0  0  0  0  0  0  0
    1.5302   -1.6553   -0.5091 Au  0  0  0  0  0  0  0  0  0  0  0  0
   -2.1559    0.0432    1.8322 H   0  0  0  0  0  0  0  0  0  0  0  0
   -2.2759    0.1871    4.3047 H   0  0  0  0  0  0  0  0  0  0  0  0
  1  2  1  0  0  0  0
  1 15  1  0  0  0  0
  2  3  1  0  0  0  0
  3  9  2  0  0  0  0
  4  6  2  0  0  0  0
  4  3  1  0  0  0  0
  5  4  1  0  0  0  0
  6  7  1  0  0  0  0
  7 19  1  0  0  0  0
  7  8  2  0  0  0  0
  8 11  1  0  0  0  0
  9  8  1  0  0  0  0
  9 10  1  0  0  0  0
 11 13  1  0  0  0  0
 11 12  2  0  0  0  0
 14  1  1  0  0  0  0
 16  1  1  0  0  0  0
 17  5  1  0  0  0  0
 18  6  1  0  0  0  0
M  END
