313146062.xyz
 OpenBabel07262113463D
CCOc1c(Br)ccc(c1CC#N)S
 24 24  0  0  0  0  0  0  0  0999 V2000
   -3.8175   -1.1754    6.1652 C   0  0  0  0  0  0  0  0  0  0  0  0
   -2.6676   -1.4188    5.2140 C   0  0  0  0  0  0  0  0  0  0  0  0
   -2.2562   -0.1494    4.6837 O   0  0  0  0  0  0  0  0  0  0  0  0
   -1.1045   -0.1328    3.9593 C   0  0  0  0  0  0  0  0  0  0  0  0
    0.1551   -0.1196    4.5848 C   0  0  0  0  0  0  0  0  0  0  0  0
    0.2703   -0.1116    6.4825 Br  0  0  0  0  0  0  0  0  0  0  0  0
    1.3246   -0.0616    3.8258 C   0  0  0  0  0  0  0  0  0  0  0  0
    1.2444    0.0000    2.4374 C   0  0  0  0  0  0  0  0  0  0  0  0
    0.0000    0.0000    1.7856 C   0  0  0  0  0  0  0  0  0  0  0  0
   -1.1825   -0.0810    2.5552 C   0  0  0  0  0  0  0  0  0  0  0  0
   -2.5544   -0.0665    1.9113 C   0  0  0  0  0  0  0  0  0  0  0  0
   -3.0194    1.2976    1.6365 C   0  0  0  0  0  0  0  0  0  0  0  0
   -3.3458    2.3827    1.3870 N   0  0  0  0  0  0  0  0  0  0  0  0
    0.0000    0.0000    0.0000 S   0  0  0  0  0  0  0  0  0  0  0  0
   -4.1809   -2.1297    6.5762 H   0  0  0  0  0  0  0  0  0  0  0  0
   -3.4924   -0.5336    6.9975 H   0  0  0  0  0  0  0  0  0  0  0  0
   -4.6518   -0.6758    5.6494 H   0  0  0  0  0  0  0  0  0  0  0  0
   -1.8202   -1.8979    5.7310 H   0  0  0  0  0  0  0  0  0  0  0  0
   -2.9658   -2.0794    4.3778 H   0  0  0  0  0  0  0  0  0  0  0  0
    2.2936   -0.0439    4.3264 H   0  0  0  0  0  0  0  0  0  0  0  0
    2.1536    0.0671    1.8383 H   0  0  0  0  0  0  0  0  0  0  0  0
   -2.5111   -0.5974    0.9470 H   0  0  0  0  0  0  0  0  0  0  0  0
   -3.2938   -0.5549    2.5588 H   0  0  0  0  0  0  0  0  0  0  0  0
   -0.9378    2.0711   -0.4559 Au  0  0  0  0  0  0  0  0  0  0  0  0
  1 15  1  0  0  0  0
  1 16  1  0  0  0  0
  2 18  1  0  0  0  0
  2  1  1  0  0  0  0
  3  2  1  0  0  0  0
  4  5  1  0  0  0  0
  4  3  1  0  0  0  0
  5  6  1  0  0  0  0
  7 20  1  0  0  0  0
  7  5  2  0  0  0  0
  8  7  1  0  0  0  0
  9  8  2  0  0  0  0
  9 10  1  0  0  0  0
 10  4  2  0  0  0  0
 11 10  1  0  0  0  0
 11 23  1  0  0  0  0
 12 11  1  0  0  0  0
 13 12  3  0  0  0  0
 14  9  1  0  0  0  0
 17  1  1  0  0  0  0
 19  2  1  0  0  0  0
 21  8  1  0  0  0  0
 22 11  1  0  0  0  0
 24 14  1  0  0  0  0
M  END
