313189335.xyz
 OpenBabel07262113463D
COc1cc(S)c(cc1Br)C(=O)Cl
 19 19  0  0  0  0  0  0  0  0999 V2000
    3.8347   -0.0068    3.5780 C   0  0  0  0  0  0  0  0  0  0  0  0
    2.6582   -0.1318    4.3551 O   0  0  0  0  0  0  0  0  0  0  0  0
    1.4620   -0.1299    3.7535 C   0  0  0  0  0  0  0  0  0  0  0  0
    1.2752    0.0000    2.3713 C   0  0  0  0  0  0  0  0  0  0  0  0
    0.0000   -0.0000    1.7822 C   0  0  0  0  0  0  0  0  0  0  0  0
    0.0000    0.0000    0.0000 S   0  0  0  0  0  0  0  0  0  0  0  0
   -1.1422   -0.1433    2.6188 C   0  0  0  0  0  0  0  0  0  0  0  0
   -0.9467   -0.2717    4.0071 C   0  0  0  0  0  0  0  0  0  0  0  0
    0.3176   -0.2592    4.5725 C   0  0  0  0  0  0  0  0  0  0  0  0
    0.5219   -0.4173    6.4492 Br  0  0  0  0  0  0  0  0  0  0  0  0
   -2.5167   -0.1246    2.0683 C   0  0  0  0  0  0  0  0  0  0  0  0
   -2.8851    0.3412    1.0378 O   0  0  0  0  0  0  0  0  0  0  0  0
   -3.7586   -0.9375    3.1366 Cl  0  0  0  0  0  0  0  0  0  0  0  0
    3.8566    0.9512    3.0313 H   0  0  0  0  0  0  0  0  0  0  0  0
    3.9320   -0.8372    2.8582 H   0  0  0  0  0  0  0  0  0  0  0  0
    4.6727   -0.0398    4.2851 H   0  0  0  0  0  0  0  0  0  0  0  0
    2.1327    0.1096    1.7102 H   0  0  0  0  0  0  0  0  0  0  0  0
   -0.9328    2.0417   -0.5399 Au  0  0  0  0  0  0  0  0  0  0  0  0
   -1.8144   -0.3830    4.6543 H   0  0  0  0  0  0  0  0  0  0  0  0
  1 16  1  0  0  0  0
  1  2  1  0  0  0  0
  3  2  1  0  0  0  0
  3  9  2  0  0  0  0
  4  3  1  0  0  0  0
  5  4  2  0  0  0  0
  5  7  1  0  0  0  0
  6  5  1  0  0  0  0
  7  8  2  0  0  0  0
  8  9  1  0  0  0  0
  8 19  1  0  0  0  0
  9 10  1  0  0  0  0
 11  7  1  0  0  0  0
 11 13  1  0  0  0  0
 12 11  2  0  0  0  0
 14  1  1  0  0  0  0
 15  1  1  0  0  0  0
 17  4  1  0  0  0  0
 18  6  1  0  0  0  0
M  END
