313135087.xyz
 OpenBabel07262113463D
Brc1cc(S)c(c(c1)[N+](=O)[O-])C(=O)Cl
 17 17  0  0  0  0  0  0  0  0999 V2000
   -3.0916   -0.2792    4.5871 Br  0  0  0  0  0  0  0  0  0  0  0  0
   -1.3745   -0.1651    3.7897 C   0  0  0  0  0  0  0  0  0  0  0  0
   -1.2611   -0.0782    2.4028 C   0  0  0  0  0  0  0  0  0  0  0  0
   -0.0000   -0.0000    1.7809 C   0  0  0  0  0  0  0  0  0  0  0  0
    0.0000    0.0000    0.0000 S   0  0  0  0  0  0  0  0  0  0  0  0
    1.1620    0.0000    2.5908 C   0  0  0  0  0  0  0  0  0  0  0  0
    1.0013   -0.0664    3.9807 C   0  0  0  0  0  0  0  0  0  0  0  0
   -0.2409   -0.1527    4.6010 C   0  0  0  0  0  0  0  0  0  0  0  0
    2.1943   -0.0842    4.8546 N   0  0  0  0  0  0  0  0  0  0  0  0
    2.0212   -0.0193    6.0558 O   0  0  0  0  0  0  0  0  0  0  0  0
    3.2816   -0.1673    4.3037 O   0  0  0  0  0  0  0  0  0  0  0  0
    2.5152    0.0750    1.9526 C   0  0  0  0  0  0  0  0  0  0  0  0
    3.1010   -0.7617    1.3714 O   0  0  0  0  0  0  0  0  0  0  0  0
    3.1522    1.8236    1.9872 Cl  0  0  0  0  0  0  0  0  0  0  0  0
   -2.1544   -0.0614    1.7782 H   0  0  0  0  0  0  0  0  0  0  0  0
    1.3340    1.8365   -0.4696 Au  0  0  0  0  0  0  0  0  0  0  0  0
   -0.2946   -0.2098    5.6861 H   0  0  0  0  0  0  0  0  0  0  0  0
  2  1  1  0  0  0  0
  2  8  2  0  0  0  0
  3  2  1  0  0  0  0
  4  3  2  0  0  0  0
  4  6  1  0  0  0  0
  5  4  1  0  0  0  0
  6  7  2  0  0  0  0
  7  8  1  0  0  0  0
  7  9  1  0  0  0  0
  8 17  1  0  0  0  0
  9 10  2  0  0  0  0
 11  9  2  0  0  0  0
 12 14  1  0  0  0  0
 12  6  1  0  0  0  0
 13 12  2  0  0  0  0
 15  3  1  0  0  0  0
 16  5  1  0  0  0  0
M  END
