313140449.xyz
 OpenBabel07262113463D
Brc1cc(OC(F)(F)F)c(c(c1)C(=O)O)S
 20 20  0  0  0  0  0  0  0  0999 V2000
   -0.1597    0.3864    6.4857 Br  0  0  0  0  0  0  0  0  0  0  0  0
   -0.0991    0.2275    4.5957 C   0  0  0  0  0  0  0  0  0  0  0  0
   -1.2845    0.2298    3.8631 C   0  0  0  0  0  0  0  0  0  0  0  0
   -1.2205    0.1119    2.4746 C   0  0  0  0  0  0  0  0  0  0  0  0
   -2.4018    0.1671    1.7529 O   0  0  0  0  0  0  0  0  0  0  0  0
   -3.1870   -0.9365    1.7102 C   0  0  0  0  0  0  0  0  0  0  0  0
   -3.7633   -1.1851    2.9010 F   0  0  0  0  0  0  0  0  0  0  0  0
   -4.1402   -0.7247    0.8200 F   0  0  0  0  0  0  0  0  0  0  0  0
   -2.5025   -2.0361    1.3743 F   0  0  0  0  0  0  0  0  0  0  0  0
    0.0000    0.0000    1.7790 C   0  0  0  0  0  0  0  0  0  0  0  0
    1.1828   -0.0000    2.5540 C   0  0  0  0  0  0  0  0  0  0  0  0
    1.1335    0.1190    3.9480 C   0  0  0  0  0  0  0  0  0  0  0  0
    2.5447   -0.1927    1.9306 C   0  0  0  0  0  0  0  0  0  0  0  0
    2.8742   -1.1678    1.3127 O   0  0  0  0  0  0  0  0  0  0  0  0
    3.4244    0.7956    2.1838 O   0  0  0  0  0  0  0  0  0  0  0  0
    0.0000    0.0000    0.0000 S   0  0  0  0  0  0  0  0  0  0  0  0
   -2.2540    0.3229    4.3504 H   0  0  0  0  0  0  0  0  0  0  0  0
    2.0548    0.1107    4.5331 H   0  0  0  0  0  0  0  0  0  0  0  0
    2.9745    1.5348    2.6197 H   0  0  0  0  0  0  0  0  0  0  0  0
    0.6152   -2.1895   -0.4216 Au  0  0  0  0  0  0  0  0  0  0  0  0
  2  1  1  0  0  0  0
  3 17  1  0  0  0  0
  3  2  2  0  0  0  0
  4  3  1  0  0  0  0
  5  4  1  0  0  0  0
  6  5  1  0  0  0  0
  6  7  1  0  0  0  0
  8  6  1  0  0  0  0
  9  6  1  0  0  0  0
 10  4  2  0  0  0  0
 10 11  1  0  0  0  0
 11 12  2  0  0  0  0
 12 18  1  0  0  0  0
 12  2  1  0  0  0  0
 13 15  1  0  0  0  0
 13 11  1  0  0  0  0
 14 13  2  0  0  0  0
 15 19  1  0  0  0  0
 16 10  1  0  0  0  0
 20 16  1  0  0  0  0
M  END
