313146560.xyz
 OpenBabel07262113463D
CCOc1c(S)ccc(c1Br)C(=O)Cl
 22 22  0  0  0  0  0  0  0  0999 V2000
   -4.2661   -0.9184    0.7986 C   0  0  0  0  0  0  0  0  0  0  0  0
   -2.9622   -1.2293    1.4955 C   0  0  0  0  0  0  0  0  0  0  0  0
   -2.3961    0.0152    1.9485 O   0  0  0  0  0  0  0  0  0  0  0  0
   -1.1819   -0.0598    2.5484 C   0  0  0  0  0  0  0  0  0  0  0  0
    0.0000   -0.0000    1.7720 C   0  0  0  0  0  0  0  0  0  0  0  0
    0.0000    0.0000    0.0000 S   0  0  0  0  0  0  0  0  0  0  0  0
    1.2440    0.0000    2.4246 C   0  0  0  0  0  0  0  0  0  0  0  0
    1.3163   -0.0733    3.8070 C   0  0  0  0  0  0  0  0  0  0  0  0
    0.1579   -0.1392    4.6020 C   0  0  0  0  0  0  0  0  0  0  0  0
   -1.0990   -0.1272    3.9511 C   0  0  0  0  0  0  0  0  0  0  0  0
   -2.7501   -0.1428    4.8912 Br  0  0  0  0  0  0  0  0  0  0  0  0
    0.2701   -0.2739    6.0794 C   0  0  0  0  0  0  0  0  0  0  0  0
   -0.5194   -0.7488    6.8263 O   0  0  0  0  0  0  0  0  0  0  0  0
    1.8263    0.3986    6.7588 Cl  0  0  0  0  0  0  0  0  0  0  0  0
   -4.0912   -0.2846   -0.0861 H   0  0  0  0  0  0  0  0  0  0  0  0
   -4.7505   -1.8489    0.4657 H   0  0  0  0  0  0  0  0  0  0  0  0
   -4.9499   -0.3881    1.4782 H   0  0  0  0  0  0  0  0  0  0  0  0
   -2.2476   -1.7214    0.8152 H   0  0  0  0  0  0  0  0  0  0  0  0
   -3.1224   -1.8801    2.3718 H   0  0  0  0  0  0  0  0  0  0  0  0
   -1.6606    1.5263   -0.5138 Au  0  0  0  0  0  0  0  0  0  0  0  0
    2.1557    0.0675    1.8292 H   0  0  0  0  0  0  0  0  0  0  0  0
    2.2870   -0.0709    4.3003 H   0  0  0  0  0  0  0  0  0  0  0  0
  1 17  1  0  0  0  0
  1  2  1  0  0  0  0
  2  3  1  0  0  0  0
  2 19  1  0  0  0  0
  3  4  1  0  0  0  0
  4 10  2  0  0  0  0
  5  7  2  0  0  0  0
  5  4  1  0  0  0  0
  6  5  1  0  0  0  0
  7  8  1  0  0  0  0
  8 22  1  0  0  0  0
  8  9  2  0  0  0  0
  9 12  1  0  0  0  0
 10  9  1  0  0  0  0
 10 11  1  0  0  0  0
 12 14  1  0  0  0  0
 12 13  2  0  0  0  0
 15  1  1  0  0  0  0
 16  1  1  0  0  0  0
 18  2  1  0  0  0  0
 20  6  1  0  0  0  0
 21  7  1  0  0  0  0
M  END
