313145313.xyz
 OpenBabel07262113463D
OCc1c(S)ccc(c1C(F)(F)F)Br
 20 20  0  0  0  0  0  0  0  0999 V2000
    3.0276    1.2360    1.4843 O   0  0  0  0  0  0  0  0  0  0  0  0
    2.5256   -0.0465    1.7982 C   0  0  0  0  0  0  0  0  0  0  0  0
    1.1977    0.0000    2.5481 C   0  0  0  0  0  0  0  0  0  0  0  0
   -0.0000   -0.0000    1.7880 C   0  0  0  0  0  0  0  0  0  0  0  0
    0.0000    0.0000    0.0000 S   0  0  0  0  0  0  0  0  0  0  0  0
   -1.2488   -0.0490    2.4195 C   0  0  0  0  0  0  0  0  0  0  0  0
   -1.3342   -0.1073    3.8031 C   0  0  0  0  0  0  0  0  0  0  0  0
   -0.1684   -0.0538    4.5685 C   0  0  0  0  0  0  0  0  0  0  0  0
    1.1029    0.0520    3.9584 C   0  0  0  0  0  0  0  0  0  0  0  0
    2.3239    0.2230    4.8614 C   0  0  0  0  0  0  0  0  0  0  0  0
    2.5887   -0.9087    5.5388 F   0  0  0  0  0  0  0  0  0  0  0  0
    2.1160    1.1985    5.7600 F   0  0  0  0  0  0  0  0  0  0  0  0
    3.4413    0.5591    4.2076 F   0  0  0  0  0  0  0  0  0  0  0  0
   -0.4210   -0.1847    6.4532 Br  0  0  0  0  0  0  0  0  0  0  0  0
    2.6084    1.5183    0.6585 H   0  0  0  0  0  0  0  0  0  0  0  0
    3.2847   -0.5634    2.3916 H   0  0  0  0  0  0  0  0  0  0  0  0
    2.3574   -0.6432    0.8886 H   0  0  0  0  0  0  0  0  0  0  0  0
    0.3134    2.2353   -0.4772 Au  0  0  0  0  0  0  0  0  0  0  0  0
   -2.1546   -0.0505    1.8111 H   0  0  0  0  0  0  0  0  0  0  0  0
   -2.3021   -0.1828    4.2992 H   0  0  0  0  0  0  0  0  0  0  0  0
  1  2  1  0  0  0  0
  2 16  1  0  0  0  0
  2  3  1  0  0  0  0
  3  9  2  0  0  0  0
  4  6  2  0  0  0  0
  4  3  1  0  0  0  0
  5  4  1  0  0  0  0
  6  7  1  0  0  0  0
  7 20  1  0  0  0  0
  7  8  2  0  0  0  0
  8 14  1  0  0  0  0
  9  8  1  0  0  0  0
  9 10  1  0  0  0  0
 10 11  1  0  0  0  0
 10 12  1  0  0  0  0
 13 10  1  0  0  0  0
 15  1  1  0  0  0  0
 17  2  1  0  0  0  0
 18  5  1  0  0  0  0
 19  6  1  0  0  0  0
M  END
