313134498.xyz
 OpenBabel07262113463D
ClCc1cc(C#N)cc(c1S)Br
 17 17  0  0  0  0  0  0  0  0999 V2000
    3.1289   -1.8125    1.7470 Cl  0  0  0  0  0  0  0  0  0  0  0  0
    2.5461   -0.0773    1.8788 C   0  0  0  0  0  0  0  0  0  0  0  0
    1.2033   -0.0000    2.5375 C   0  0  0  0  0  0  0  0  0  0  0  0
    1.1575    0.0506    3.9310 C   0  0  0  0  0  0  0  0  0  0  0  0
   -0.0681    0.1200    4.6099 C   0  0  0  0  0  0  0  0  0  0  0  0
   -0.1005    0.1782    6.0426 C   0  0  0  0  0  0  0  0  0  0  0  0
   -0.1229    0.2250    7.2022 N   0  0  0  0  0  0  0  0  0  0  0  0
   -1.2644    0.1376    3.8774 C   0  0  0  0  0  0  0  0  0  0  0  0
   -1.2242    0.0764    2.4855 C   0  0  0  0  0  0  0  0  0  0  0  0
    0.0000   -0.0000    1.7799 C   0  0  0  0  0  0  0  0  0  0  0  0
    0.0000    0.0000    0.0000 S   0  0  0  0  0  0  0  0  0  0  0  0
   -2.8900    0.0861    1.5731 Br  0  0  0  0  0  0  0  0  0  0  0  0
    2.5202    0.3159    0.8573 H   0  0  0  0  0  0  0  0  0  0  0  0
    3.3163    0.4318    2.4687 H   0  0  0  0  0  0  0  0  0  0  0  0
    2.0868    0.0353    4.5029 H   0  0  0  0  0  0  0  0  0  0  0  0
   -2.2226    0.1917    4.3935 H   0  0  0  0  0  0  0  0  0  0  0  0
    0.8656   -2.1110   -0.4126 Au  0  0  0  0  0  0  0  0  0  0  0  0
  1  2  1  0  0  0  0
  2 14  1  0  0  0  0
  2  3  1  0  0  0  0
  3  4  2  0  0  0  0
  4 15  1  0  0  0  0
  4  5  1  0  0  0  0
  5  6  1  0  0  0  0
  6  7  3  0  0  0  0
  8 16  1  0  0  0  0
  8  5  2  0  0  0  0
  9  8  1  0  0  0  0
 10  9  2  0  0  0  0
 10  3  1  0  0  0  0
 11 10  1  0  0  0  0
 12  9  1  0  0  0  0
 13  2  1  0  0  0  0
 17 11  1  0  0  0  0
M  END
