313190103.xyz
 OpenBabel07262113463D
COc1ccc(c(c1S)C(=O)Cl)Br
 19 19  0  0  0  0  0  0  0  0999 V2000
   -3.5965   -0.0859    2.4510 C   0  0  0  0  0  0  0  0  0  0  0  0
   -2.3511   -0.0025    1.7907 O   0  0  0  0  0  0  0  0  0  0  0  0
   -1.2148   -0.0624    2.5049 C   0  0  0  0  0  0  0  0  0  0  0  0
   -1.1726   -0.1540    3.9034 C   0  0  0  0  0  0  0  0  0  0  0  0
    0.0496   -0.1700    4.5765 C   0  0  0  0  0  0  0  0  0  0  0  0
    1.2462   -0.0862    3.8653 C   0  0  0  0  0  0  0  0  0  0  0  0
    1.2224    0.0000    2.4677 C   0  0  0  0  0  0  0  0  0  0  0  0
   -0.0000   -0.0000    1.7730 C   0  0  0  0  0  0  0  0  0  0  0  0
    0.0000    0.0000    0.0000 S   0  0  0  0  0  0  0  0  0  0  0  0
    2.5020    0.1118    1.6890 C   0  0  0  0  0  0  0  0  0  0  0  0
    3.1946   -0.7671    1.3099 O   0  0  0  0  0  0  0  0  0  0  0  0
    2.9484    1.8489    1.4298 Cl  0  0  0  0  0  0  0  0  0  0  0  0
    2.8978   -0.0662    4.8124 Br  0  0  0  0  0  0  0  0  0  0  0  0
   -4.3636   -0.0322    1.6684 H   0  0  0  0  0  0  0  0  0  0  0  0
   -3.7400    0.7515    3.1561 H   0  0  0  0  0  0  0  0  0  0  0  0
   -3.7023   -1.0394    2.9971 H   0  0  0  0  0  0  0  0  0  0  0  0
   -2.0924   -0.2103    4.4842 H   0  0  0  0  0  0  0  0  0  0  0  0
    0.0721   -0.2413    5.6647 H   0  0  0  0  0  0  0  0  0  0  0  0
   -0.4562    2.2179   -0.4433 Au  0  0  0  0  0  0  0  0  0  0  0  0
  1 16  1  0  0  0  0
  1 15  1  0  0  0  0
  2  1  1  0  0  0  0
  2  3  1  0  0  0  0
  3  4  2  0  0  0  0
  4 17  1  0  0  0  0
  4  5  1  0  0  0  0
  5 18  1  0  0  0  0
  6  5  2  0  0  0  0
  6 13  1  0  0  0  0
  7  6  1  0  0  0  0
  8  7  2  0  0  0  0
  8  3  1  0  0  0  0
  9  8  1  0  0  0  0
 10  7  1  0  0  0  0
 11 10  2  0  0  0  0
 12 10  1  0  0  0  0
 14  1  1  0  0  0  0
 19  9  1  0  0  0  0
M  END
