313141487.xyz
 OpenBabel07262113463D
Sc1cc(Br)c(c(c1)C(F)(F)F)C(=O)Cl
 18 18  0  0  0  0  0  0  0  0999 V2000
    0.0000    0.0000    0.0000 S   0  0  0  0  0  0  0  0  0  0  0  0
   -0.0000   -0.0000    1.7846 C   0  0  0  0  0  0  0  0  0  0  0  0
   -1.2139    0.0933    2.4765 C   0  0  0  0  0  0  0  0  0  0  0  0
   -1.2168    0.1668    3.8707 C   0  0  0  0  0  0  0  0  0  0  0  0
   -2.8895    0.3238    4.7616 Br  0  0  0  0  0  0  0  0  0  0  0  0
   -0.0206    0.1465    4.6019 C   0  0  0  0  0  0  0  0  0  0  0  0
    1.1974    0.0719    3.8952 C   0  0  0  0  0  0  0  0  0  0  0  0
    1.2047    0.0000    2.5044 C   0  0  0  0  0  0  0  0  0  0  0  0
    2.5220    0.1047    4.6334 C   0  0  0  0  0  0  0  0  0  0  0  0
    3.5370   -0.2643    3.8379 F   0  0  0  0  0  0  0  0  0  0  0  0
    2.5142   -0.7280    5.6891 F   0  0  0  0  0  0  0  0  0  0  0  0
    2.7962    1.3330    5.0927 F   0  0  0  0  0  0  0  0  0  0  0  0
   -0.0380    0.2271    6.1042 C   0  0  0  0  0  0  0  0  0  0  0  0
    0.2419    1.1767    6.7535 O   0  0  0  0  0  0  0  0  0  0  0  0
   -0.5147   -1.3311    6.8519 Cl  0  0  0  0  0  0  0  0  0  0  0  0
    0.3015   -2.2305   -0.4843 Au  0  0  0  0  0  0  0  0  0  0  0  0
   -2.1547    0.1062    1.9260 H   0  0  0  0  0  0  0  0  0  0  0  0
    2.1511   -0.0619    1.9692 H   0  0  0  0  0  0  0  0  0  0  0  0
  1  2  1  0  0  0  0
  2  3  2  0  0  0  0
  2  8  1  0  0  0  0
  3  4  1  0  0  0  0
  4  6  2  0  0  0  0
  4  5  1  0  0  0  0
  6 13  1  0  0  0  0
  7  6  1  0  0  0  0
  7  9  1  0  0  0  0
  8  7  2  0  0  0  0
  9 12  1  0  0  0  0
  9 11  1  0  0  0  0
 10  9  1  0  0  0  0
 13 14  2  0  0  0  0
 13 15  1  0  0  0  0
 16  1  1  0  0  0  0
 17  3  1  0  0  0  0
 18  8  1  0  0  0  0
M  END
