313222380.xyz
 OpenBabel07262113463D
ClC(=O)c1ccc(c(c1S)F)F
 15 15  0  0  0  0  0  0  0  0999 V2000
   -3.7411    1.1201    2.8166 Cl  0  0  0  0  0  0  0  0  0  0  0  0
   -2.5187    0.0529    1.9930 C   0  0  0  0  0  0  0  0  0  0  0  0
   -2.8617   -0.6248    1.0813 O   0  0  0  0  0  0  0  0  0  0  0  0
   -1.1591    0.1445    2.5930 C   0  0  0  0  0  0  0  0  0  0  0  0
   -1.0289    0.2955    3.9802 C   0  0  0  0  0  0  0  0  0  0  0  0
    0.2221    0.2810    4.5937 C   0  0  0  0  0  0  0  0  0  0  0  0
    1.3564    0.1319    3.8067 C   0  0  0  0  0  0  0  0  0  0  0  0
    1.2498   -0.0000    2.4176 C   0  0  0  0  0  0  0  0  0  0  0  0
   -0.0000    0.0000    1.7789 C   0  0  0  0  0  0  0  0  0  0  0  0
    0.0000    0.0000    0.0000 S   0  0  0  0  0  0  0  0  0  0  0  0
    2.3716   -0.1355    1.7223 F   0  0  0  0  0  0  0  0  0  0  0  0
    2.5661    0.1159    4.3593 F   0  0  0  0  0  0  0  0  0  0  0  0
   -1.9263    0.4195    4.5850 H   0  0  0  0  0  0  0  0  0  0  0  0
    0.3344    0.3864    5.6737 H   0  0  0  0  0  0  0  0  0  0  0  0
   -0.5020   -2.2019   -0.4639 Au  0  0  0  0  0  0  0  0  0  0  0  0
  2  4  1  0  0  0  0
  2  1  1  0  0  0  0
  3  2  2  0  0  0  0
  4  5  2  0  0  0  0
  5 13  1  0  0  0  0
  5  6  1  0  0  0  0
  6 14  1  0  0  0  0
  7 12  1  0  0  0  0
  7  6  2  0  0  0  0
  8  7  1  0  0  0  0
  9  8  2  0  0  0  0
  9  4  1  0  0  0  0
 10  9  1  0  0  0  0
 11  8  1  0  0  0  0
 15 10  1  0  0  0  0
M  END
