313294057.xyz
 OpenBabel07262113473D
[O-][N+](=O)c1cc(F)c(c(c1)C(=O)Cl)S
 17 17  0  0  0  0  0  0  0  0999 V2000
   -1.3762   -0.5513    6.5085 O   0  0  0  0  0  0  0  0  0  0  0  0
   -0.2625   -0.4308    6.0279 N   0  0  0  0  0  0  0  0  0  0  0  0
    0.7822   -0.4201    6.6554 O   0  0  0  0  0  0  0  0  0  0  0  0
   -0.1725   -0.2839    4.5598 C   0  0  0  0  0  0  0  0  0  0  0  0
   -1.3465   -0.2857    3.8135 C   0  0  0  0  0  0  0  0  0  0  0  0
   -1.2390   -0.1500    2.4351 C   0  0  0  0  0  0  0  0  0  0  0  0
   -2.3589   -0.1531    1.7216 F   0  0  0  0  0  0  0  0  0  0  0  0
   -0.0000    0.0000    1.7766 C   0  0  0  0  0  0  0  0  0  0  0  0
    1.1692    0.0000    2.5839 C   0  0  0  0  0  0  0  0  0  0  0  0
    1.0797   -0.1555    3.9709 C   0  0  0  0  0  0  0  0  0  0  0  0
    2.5149    0.2404    1.9774 C   0  0  0  0  0  0  0  0  0  0  0  0
    2.7808    1.0186    1.1218 O   0  0  0  0  0  0  0  0  0  0  0  0
    3.8080   -0.7894    2.7016 Cl  0  0  0  0  0  0  0  0  0  0  0  0
    0.0000    0.0000    0.0000 S   0  0  0  0  0  0  0  0  0  0  0  0
   -2.3177   -0.3921    4.2944 H   0  0  0  0  0  0  0  0  0  0  0  0
    1.9698   -0.1754    4.5959 H   0  0  0  0  0  0  0  0  0  0  0  0
    0.2968    2.2436   -0.4501 Au  0  0  0  0  0  0  0  0  0  0  0  0
  2  1  2  0  0  0  0
  2  3  2  0  0  0  0
  4  2  1  0  0  0  0
  5 15  1  0  0  0  0
  5  4  2  0  0  0  0
  6  5  1  0  0  0  0
  7  6  1  0  0  0  0
  8  6  2  0  0  0  0
  8  9  1  0  0  0  0
  9 10  2  0  0  0  0
 10  4  1  0  0  0  0
 10 16  1  0  0  0  0
 11  9  1  0  0  0  0
 11 13  1  0  0  0  0
 12 11  2  0  0  0  0
 14  8  1  0  0  0  0
 17 14  1  0  0  0  0
M  END
