313200829.xyz
 OpenBabel07262113463D
[O-][N+](=O)c1c(Cl)ccc(c1S)C(=O)Cl
 17 17  0  0  0  0  0  0  0  0999 V2000
   -3.0394   -1.0634    1.7170 O   0  0  0  0  0  0  0  0  0  0  0  0
   -2.4894    0.0184    1.8559 N   0  0  0  0  0  0  0  0  0  0  0  0
   -2.9026    1.0886    1.4692 O   0  0  0  0  0  0  0  0  0  0  0  0
   -1.1836    0.0101    2.5435 C   0  0  0  0  0  0  0  0  0  0  0  0
   -1.1790   -0.0299    3.9404 C   0  0  0  0  0  0  0  0  0  0  0  0
   -2.6733   -0.0247    4.8225 Cl  0  0  0  0  0  0  0  0  0  0  0  0
    0.0362   -0.0626    4.6265 C   0  0  0  0  0  0  0  0  0  0  0  0
    1.2233   -0.0561    3.9005 C   0  0  0  0  0  0  0  0  0  0  0  0
    1.2181    0.0000    2.5007 C   0  0  0  0  0  0  0  0  0  0  0  0
   -0.0000   -0.0000    1.7827 C   0  0  0  0  0  0  0  0  0  0  0  0
    0.0000    0.0000    0.0000 S   0  0  0  0  0  0  0  0  0  0  0  0
    2.5649    0.0286    1.8504 C   0  0  0  0  0  0  0  0  0  0  0  0
    3.4599   -0.7116    2.0962 O   0  0  0  0  0  0  0  0  0  0  0  0
    2.7985    1.4329    0.7528 Cl  0  0  0  0  0  0  0  0  0  0  0  0
    0.0384   -0.0943    5.7160 H   0  0  0  0  0  0  0  0  0  0  0  0
    2.1807   -0.0895    4.4231 H   0  0  0  0  0  0  0  0  0  0  0  0
   -1.2256   -1.9076   -0.4708 Au  0  0  0  0  0  0  0  0  0  0  0  0
  1  2  2  0  0  0  0
  2  4  1  0  0  0  0
  3  2  2  0  0  0  0
  4  5  2  0  0  0  0
  5  7  1  0  0  0  0
  5  6  1  0  0  0  0
  7 15  1  0  0  0  0
  8 16  1  0  0  0  0
  8  7  2  0  0  0  0
  9  8  1  0  0  0  0
 10  9  2  0  0  0  0
 10  4  1  0  0  0  0
 11 10  1  0  0  0  0
 12 13  2  0  0  0  0
 12  9  1  0  0  0  0
 14 12  1  0  0  0  0
 17 11  1  0  0  0  0
M  END
