313271267.xyz
 OpenBabel07262113473D
COc1cc(S)c(c(c1)C(=O)Cl)F
 19 19  0  0  0  0  0  0  0  0999 V2000
    2.6285    0.2434    5.8053 C   0  0  0  0  0  0  0  0  0  0  0  0
    2.5101    0.1314    4.4030 O   0  0  0  0  0  0  0  0  0  0  0  0
    1.2748    0.1261    3.8520 C   0  0  0  0  0  0  0  0  0  0  0  0
    1.2211    0.0000    2.4538 C   0  0  0  0  0  0  0  0  0  0  0  0
   -0.0000    0.0000    1.7762 C   0  0  0  0  0  0  0  0  0  0  0  0
    0.0000    0.0000    0.0000 S   0  0  0  0  0  0  0  0  0  0  0  0
   -1.1904    0.1044    2.5232 C   0  0  0  0  0  0  0  0  0  0  0  0
   -1.1596    0.2010    3.9239 C   0  0  0  0  0  0  0  0  0  0  0  0
    0.0885    0.2213    4.5798 C   0  0  0  0  0  0  0  0  0  0  0  0
   -2.4441    0.2741    4.6673 C   0  0  0  0  0  0  0  0  0  0  0  0
   -3.5393    0.1748    4.2234 O   0  0  0  0  0  0  0  0  0  0  0  0
   -2.2519    0.5516    6.4674 Cl  0  0  0  0  0  0  0  0  0  0  0  0
   -2.3477    0.0842    1.8724 F   0  0  0  0  0  0  0  0  0  0  0  0
    2.1410   -0.6009    6.3243 H   0  0  0  0  0  0  0  0  0  0  0  0
    3.7027    0.2301    6.0296 H   0  0  0  0  0  0  0  0  0  0  0  0
    2.1938    1.1884    6.1765 H   0  0  0  0  0  0  0  0  0  0  0  0
    2.1535   -0.0973    1.8964 H   0  0  0  0  0  0  0  0  0  0  0  0
   -1.2740   -1.8467   -0.5225 Au  0  0  0  0  0  0  0  0  0  0  0  0
    0.0927    0.3053    5.6623 H   0  0  0  0  0  0  0  0  0  0  0  0
  1 15  1  0  0  0  0
  1 16  1  0  0  0  0
  1 14  1  0  0  0  0
  2  1  1  0  0  0  0
  3  2  1  0  0  0  0
  3  9  2  0  0  0  0
  4  3  1  0  0  0  0
  5  4  2  0  0  0  0
  5  7  1  0  0  0  0
  6  5  1  0  0  0  0
  7  8  2  0  0  0  0
  8  9  1  0  0  0  0
  8 10  1  0  0  0  0
  9 19  1  0  0  0  0
 10 12  1  0  0  0  0
 11 10  2  0  0  0  0
 13  7  1  0  0  0  0
 17  4  1  0  0  0  0
 18  6  1  0  0  0  0
M  END
