313242173.xyz
 OpenBabel07262113473D
Sc1cc(C)c(c(c1)Br)F
 16 16  0  0  0  0  0  0  0  0999 V2000
    0.0000    0.0000    0.0000 S   0  0  0  0  0  0  0  0  0  0  0  0
    0.0000   -0.0000    1.7820 C   0  0  0  0  0  0  0  0  0  0  0  0
    1.2150   -0.0000    2.4882 C   0  0  0  0  0  0  0  0  0  0  0  0
    1.2475   -0.0781    3.8830 C   0  0  0  0  0  0  0  0  0  0  0  0
    2.5306   -0.0803    4.6690 C   0  0  0  0  0  0  0  0  0  0  0  0
    0.0223   -0.1571    4.5591 C   0  0  0  0  0  0  0  0  0  0  0  0
   -1.1974   -0.1618    3.8760 C   0  0  0  0  0  0  0  0  0  0  0  0
   -1.2125   -0.0852    2.4836 C   0  0  0  0  0  0  0  0  0  0  0  0
   -2.8161   -0.2729    4.8579 Br  0  0  0  0  0  0  0  0  0  0  0  0
    0.0365   -0.2300    5.8928 F   0  0  0  0  0  0  0  0  0  0  0  0
   -0.1188    2.2412   -0.5205 Au  0  0  0  0  0  0  0  0  0  0  0  0
    2.1510    0.0641    1.9305 H   0  0  0  0  0  0  0  0  0  0  0  0
    3.3989   -0.0099    3.9999 H   0  0  0  0  0  0  0  0  0  0  0  0
    2.5651    0.7649    5.3749 H   0  0  0  0  0  0  0  0  0  0  0  0
    2.6269   -0.9995    5.2688 H   0  0  0  0  0  0  0  0  0  0  0  0
   -2.1596   -0.0887    1.9444 H   0  0  0  0  0  0  0  0  0  0  0  0
  1  2  1  0  0  0  0
  2  8  2  0  0  0  0
  2  3  1  0  0  0  0
  3  4  2  0  0  0  0
  4  6  1  0  0  0  0
  4  5  1  0  0  0  0
  5 15  1  0  0  0  0
  5 14  1  0  0  0  0
  6 10  1  0  0  0  0
  7  6  2  0  0  0  0
  7  9  1  0  0  0  0
  8  7  1  0  0  0  0
 11  1  1  0  0  0  0
 12  3  1  0  0  0  0
 13  5  1  0  0  0  0
 16  8  1  0  0  0  0
M  END
