313225655.xyz
 OpenBabel07262113463D
Sc1cc(C(=O)Cl)c(c(c1)C(F)(F)F)Cl
 18 18  0  0  0  0  0  0  0  0999 V2000
    0.0000    0.0000    0.0000 S   0  0  0  0  0  0  0  0  0  0  0  0
    0.0000   -0.0000    1.7826 C   0  0  0  0  0  0  0  0  0  0  0  0
    1.2063    0.0000    2.4911 C   0  0  0  0  0  0  0  0  0  0  0  0
    1.2189   -0.0984    3.8876 C   0  0  0  0  0  0  0  0  0  0  0  0
    2.5735   -0.1104    4.5270 C   0  0  0  0  0  0  0  0  0  0  0  0
    3.4294    0.6856    4.3186 O   0  0  0  0  0  0  0  0  0  0  0  0
    2.8784   -1.5569    5.5410 Cl  0  0  0  0  0  0  0  0  0  0  0  0
    0.0060   -0.1398    4.5970 C   0  0  0  0  0  0  0  0  0  0  0  0
   -1.2127   -0.1335    3.8920 C   0  0  0  0  0  0  0  0  0  0  0  0
   -1.2035   -0.0787    2.4980 C   0  0  0  0  0  0  0  0  0  0  0  0
   -2.5459   -0.1732    4.6165 C   0  0  0  0  0  0  0  0  0  0  0  0
   -2.6591   -1.2635    5.3875 F   0  0  0  0  0  0  0  0  0  0  0  0
   -2.7152    0.9020    5.3999 F   0  0  0  0  0  0  0  0  0  0  0  0
   -3.5686   -0.1943    3.7455 F   0  0  0  0  0  0  0  0  0  0  0  0
    0.0202   -0.1265    6.3323 Cl  0  0  0  0  0  0  0  0  0  0  0  0
   -0.1720    2.2441   -0.4908 Au  0  0  0  0  0  0  0  0  0  0  0  0
    2.1518    0.0694    1.9516 H   0  0  0  0  0  0  0  0  0  0  0  0
   -2.1480   -0.0825    1.9556 H   0  0  0  0  0  0  0  0  0  0  0  0
  1  2  1  0  0  0  0
  2  3  2  0  0  0  0
  2 10  1  0  0  0  0
  3  4  1  0  0  0  0
  4  5  1  0  0  0  0
  4  8  2  0  0  0  0
  5  7  1  0  0  0  0
  6  5  2  0  0  0  0
  8 15  1  0  0  0  0
  9  8  1  0  0  0  0
  9 11  1  0  0  0  0
 10  9  2  0  0  0  0
 11 12  1  0  0  0  0
 11 13  1  0  0  0  0
 14 11  1  0  0  0  0
 16  1  1  0  0  0  0
 17  3  1  0  0  0  0
 18 10  1  0  0  0  0
M  END
