313219032.xyz
 OpenBabel07262113463D
ClC(=O)c1ccc(c(c1Br)Br)S
 15 15  0  0  0  0  0  0  0  0999 V2000
   -0.1136    1.9324    6.7215 Cl  0  0  0  0  0  0  0  0  0  0  0  0
    0.4715    0.3703    6.0507 C   0  0  0  0  0  0  0  0  0  0  0  0
    1.0888   -0.3903    6.7206 O   0  0  0  0  0  0  0  0  0  0  0  0
    0.2289    0.2299    4.5802 C   0  0  0  0  0  0  0  0  0  0  0  0
    1.3733    0.1136    3.7804 C   0  0  0  0  0  0  0  0  0  0  0  0
    1.2586    0.0000    2.4022 C   0  0  0  0  0  0  0  0  0  0  0  0
   -0.0000    0.0000    1.7745 C   0  0  0  0  0  0  0  0  0  0  0  0
   -1.1606    0.0831    2.5845 C   0  0  0  0  0  0  0  0  0  0  0  0
   -1.0428    0.1824    3.9836 C   0  0  0  0  0  0  0  0  0  0  0  0
   -2.5820    0.1767    5.0945 Br  0  0  0  0  0  0  0  0  0  0  0  0
   -2.8749    0.0288    1.7845 Br  0  0  0  0  0  0  0  0  0  0  0  0
    0.0000    0.0000    0.0000 S   0  0  0  0  0  0  0  0  0  0  0  0
    2.3561    0.1137    4.2549 H   0  0  0  0  0  0  0  0  0  0  0  0
    2.1490   -0.0955    1.7796 H   0  0  0  0  0  0  0  0  0  0  0  0
   -1.1166   -1.9585   -0.5131 Au  0  0  0  0  0  0  0  0  0  0  0  0
  2  3  2  0  0  0  0
  2  1  1  0  0  0  0
  4  2  1  0  0  0  0
  5 13  1  0  0  0  0
  5  4  2  0  0  0  0
  6  5  1  0  0  0  0
  7  6  2  0  0  0  0
  7  8  1  0  0  0  0
  8  9  2  0  0  0  0
  9  4  1  0  0  0  0
  9 10  1  0  0  0  0
 11  8  1  0  0  0  0
 12  7  1  0  0  0  0
 14  6  1  0  0  0  0
 15 12  1  0  0  0  0
M  END
