313231461.xyz
 OpenBabel07262113473D
CCOc1cc(S)c(c(c1)C(=O)Cl)Cl
 22 22  0  0  0  0  0  0  0  0999 V2000
   -4.8675    0.5529    4.7558 C   0  0  0  0  0  0  0  0  0  0  0  0
   -3.7453    0.3805    3.7537 C   0  0  0  0  0  0  0  0  0  0  0  0
   -2.5169    0.3619    4.4704 O   0  0  0  0  0  0  0  0  0  0  0  0
   -1.3558    0.2360    3.7954 C   0  0  0  0  0  0  0  0  0  0  0  0
   -1.2553    0.0964    2.4075 C   0  0  0  0  0  0  0  0  0  0  0  0
   -0.0000    0.0000    1.7756 C   0  0  0  0  0  0  0  0  0  0  0  0
    0.0000    0.0000    0.0000 S   0  0  0  0  0  0  0  0  0  0  0  0
    1.1689   -0.0000    2.5618 C   0  0  0  0  0  0  0  0  0  0  0  0
    1.0624    0.0810    3.9625 C   0  0  0  0  0  0  0  0  0  0  0  0
   -0.1846    0.2351    4.5685 C   0  0  0  0  0  0  0  0  0  0  0  0
    2.2337    0.0422    4.8929 C   0  0  0  0  0  0  0  0  0  0  0  0
    2.4879    0.8527    5.7214 O   0  0  0  0  0  0  0  0  0  0  0  0
    3.1891   -1.4799    4.7681 Cl  0  0  0  0  0  0  0  0  0  0  0  0
    2.7395   -0.0593    1.8181 Cl  0  0  0  0  0  0  0  0  0  0  0  0
   -5.8384    0.5713    4.2380 H   0  0  0  0  0  0  0  0  0  0  0  0
   -4.8721   -0.2765    5.4790 H   0  0  0  0  0  0  0  0  0  0  0  0
   -4.7491    1.4952    5.3115 H   0  0  0  0  0  0  0  0  0  0  0  0
   -3.7366    1.2089    3.0215 H   0  0  0  0  0  0  0  0  0  0  0  0
   -3.8610   -0.5625    3.1878 H   0  0  0  0  0  0  0  0  0  0  0  0
   -2.1405    0.0638    1.7753 H   0  0  0  0  0  0  0  0  0  0  0  0
    1.0791   -1.9761   -0.5127 Au  0  0  0  0  0  0  0  0  0  0  0  0
   -0.2651    0.3347    5.6513 H   0  0  0  0  0  0  0  0  0  0  0  0
  1 17  1  0  0  0  0
  1 16  1  0  0  0  0
  2  3  1  0  0  0  0
  2  1  1  0  0  0  0
  4  3  1  0  0  0  0
  4 10  2  0  0  0  0
  5  4  1  0  0  0  0
  6  5  2  0  0  0  0
  6  8  1  0  0  0  0
  7  6  1  0  0  0  0
  8  9  2  0  0  0  0
  9 10  1  0  0  0  0
  9 11  1  0  0  0  0
 10 22  1  0  0  0  0
 11 12  2  0  0  0  0
 13 11  1  0  0  0  0
 14  8  1  0  0  0  0
 15  1  1  0  0  0  0
 18  2  1  0  0  0  0
 19  2  1  0  0  0  0
 20  5  1  0  0  0  0
 21  7  1  0  0  0  0
M  END
