313227396.xyz
 OpenBabel07262113473D
ClCc1cc(F)c(c(c1)Cl)S
 16 16  0  0  0  0  0  0  0  0999 V2000
    0.2790   -1.4540    6.8089 Cl  0  0  0  0  0  0  0  0  0  0  0  0
    0.2239    0.2204    6.0981 C   0  0  0  0  0  0  0  0  0  0  0  0
    0.1496    0.1683    4.6023 C   0  0  0  0  0  0  0  0  0  0  0  0
    1.3195    0.0869    3.8382 C   0  0  0  0  0  0  0  0  0  0  0  0
    1.2309   -0.0000    2.4553 C   0  0  0  0  0  0  0  0  0  0  0  0
    2.3619   -0.0858    1.7567 F   0  0  0  0  0  0  0  0  0  0  0  0
   -0.0000   -0.0000    1.7676 C   0  0  0  0  0  0  0  0  0  0  0  0
   -1.1636    0.0764    2.5672 C   0  0  0  0  0  0  0  0  0  0  0  0
   -1.0932    0.1515    3.9581 C   0  0  0  0  0  0  0  0  0  0  0  0
   -2.7367    0.0376    1.8282 Cl  0  0  0  0  0  0  0  0  0  0  0  0
    0.0000    0.0000    0.0000 S   0  0  0  0  0  0  0  0  0  0  0  0
   -0.6554    0.7129    6.5311 H   0  0  0  0  0  0  0  0  0  0  0  0
    1.1310    0.7322    6.4423 H   0  0  0  0  0  0  0  0  0  0  0  0
    2.3065    0.0777    4.3040 H   0  0  0  0  0  0  0  0  0  0  0  0
   -2.0171    0.1953    4.5359 H   0  0  0  0  0  0  0  0  0  0  0  0
   -0.8829   -2.0785   -0.4774 Au  0  0  0  0  0  0  0  0  0  0  0  0
  2 13  1  0  0  0  0
  2 12  1  0  0  0  0
  2  1  1  0  0  0  0
  3  2  1  0  0  0  0
  4 14  1  0  0  0  0
  4  3  2  0  0  0  0
  5  4  1  0  0  0  0
  6  5  1  0  0  0  0
  7  5  2  0  0  0  0
  7  8  1  0  0  0  0
  8  9  2  0  0  0  0
  9 15  1  0  0  0  0
  9  3  1  0  0  0  0
 10  8  1  0  0  0  0
 11  7  1  0  0  0  0
 16 11  1  0  0  0  0
M  END
