313217026.xyz
 OpenBabel07262113463D
N#Cc1cc(S)c(c(c1)C(=O)Cl)Cl
 16 16  0  0  0  0  0  0  0  0999 V2000
    3.6838   -0.1832    4.9437 N   0  0  0  0  0  0  0  0  0  0  0  0
    2.6405   -0.1620    4.4362 C   0  0  0  0  0  0  0  0  0  0  0  0
    1.3508   -0.1340    3.8076 C   0  0  0  0  0  0  0  0  0  0  0  0
    1.2482   -0.0000    2.4161 C   0  0  0  0  0  0  0  0  0  0  0  0
   -0.0000   -0.0000    1.7747 C   0  0  0  0  0  0  0  0  0  0  0  0
    0.0000    0.0000    0.0000 S   0  0  0  0  0  0  0  0  0  0  0  0
   -1.1660   -0.0974    2.5697 C   0  0  0  0  0  0  0  0  0  0  0  0
   -1.0689   -0.1698    3.9707 C   0  0  0  0  0  0  0  0  0  0  0  0
    0.1858   -0.2270    4.5831 C   0  0  0  0  0  0  0  0  0  0  0  0
   -2.2483   -0.2304    4.8935 C   0  0  0  0  0  0  0  0  0  0  0  0
   -2.4271   -1.0630    5.7195 O   0  0  0  0  0  0  0  0  0  0  0  0
   -3.3284    1.1966    4.7603 Cl  0  0  0  0  0  0  0  0  0  0  0  0
   -2.7252   -0.1667    1.8193 Cl  0  0  0  0  0  0  0  0  0  0  0  0
    2.1491    0.0968    1.8094 H   0  0  0  0  0  0  0  0  0  0  0  0
   -1.2126    1.8982   -0.5090 Au  0  0  0  0  0  0  0  0  0  0  0  0
    0.2514   -0.3276    5.6669 H   0  0  0  0  0  0  0  0  0  0  0  0
  2  1  3  0  0  0  0
  3  2  1  0  0  0  0
  3  9  2  0  0  0  0
  4  3  1  0  0  0  0
  5  4  2  0  0  0  0
  5  7  1  0  0  0  0
  6  5  1  0  0  0  0
  7  8  2  0  0  0  0
  8  9  1  0  0  0  0
  8 10  1  0  0  0  0
  9 16  1  0  0  0  0
 10 11  2  0  0  0  0
 12 10  1  0  0  0  0
 13  7  1  0  0  0  0
 14  4  1  0  0  0  0
 15  6  1  0  0  0  0
M  END
