313272800.xyz
 OpenBabel07262113473D
COc1c(F)ccc(c1S)C(=O)N
 21 21  0  0  0  0  0  0  0  0999 V2000
   -3.1432    1.2031    1.4521 C   0  0  0  0  0  0  0  0  0  0  0  0
   -2.4034    0.0063    1.6716 O   0  0  0  0  0  0  0  0  0  0  0  0
   -1.2680    0.1189    2.4062 C   0  0  0  0  0  0  0  0  0  0  0  0
   -1.3464    0.2791    3.7935 C   0  0  0  0  0  0  0  0  0  0  0  0
   -2.5568    0.3951    4.3559 F   0  0  0  0  0  0  0  0  0  0  0  0
   -0.2054    0.3256    4.5829 C   0  0  0  0  0  0  0  0  0  0  0  0
    1.0364    0.1845    3.9715 C   0  0  0  0  0  0  0  0  0  0  0  0
    1.1744   -0.0000    2.5870 C   0  0  0  0  0  0  0  0  0  0  0  0
   -0.0000    0.0000    1.7879 C   0  0  0  0  0  0  0  0  0  0  0  0
    0.0000    0.0000    0.0000 S   0  0  0  0  0  0  0  0  0  0  0  0
    2.6251   -0.1870    2.1515 C   0  0  0  0  0  0  0  0  0  0  0  0
    3.5260    0.0104    2.9544 O   0  0  0  0  0  0  0  0  0  0  0  0
    2.8696   -0.6298    0.8949 N   0  0  0  0  0  0  0  0  0  0  0  0
   -4.0054    0.9293    0.8301 H   0  0  0  0  0  0  0  0  0  0  0  0
   -3.5002    1.6324    2.4021 H   0  0  0  0  0  0  0  0  0  0  0  0
   -2.5287    1.9441    0.9139 H   0  0  0  0  0  0  0  0  0  0  0  0
   -0.3060    0.4566    5.6617 H   0  0  0  0  0  0  0  0  0  0  0  0
    1.9563    0.2063    4.5561 H   0  0  0  0  0  0  0  0  0  0  0  0
   -1.0258   -2.0086   -0.4918 Au  0  0  0  0  0  0  0  0  0  0  0  0
    3.8436   -0.7129    0.6288 H   0  0  0  0  0  0  0  0  0  0  0  0
    2.1362   -0.6616    0.1921 H   0  0  0  0  0  0  0  0  0  0  0  0
  1  2  1  0  0  0  0
  1 15  1  0  0  0  0
  2  3  1  0  0  0  0
  3  4  1  0  0  0  0
  4  5  1  0  0  0  0
  4  6  2  0  0  0  0
  6 17  1  0  0  0  0
  7 18  1  0  0  0  0
  7  6  1  0  0  0  0
  8  7  2  0  0  0  0
  9  3  2  0  0  0  0
  9  8  1  0  0  0  0
 10  9  1  0  0  0  0
 11  8  1  0  0  0  0
 11 12  2  0  0  0  0
 13 11  1  0  0  0  0
 14  1  1  0  0  0  0
 16  1  1  0  0  0  0
 19 10  1  0  0  0  0
 20 13  1  0  0  0  0
 21 13  1  0  0  0  0
M  END
