313298926.xyz
 OpenBabel07262113473D
N#CCc1c(cc(cc1F)S)OC(F)(F)F
 21 21  0  0  0  0  0  0  0  0999 V2000
   -0.8107   -2.0298    7.1794 N   0  0  0  0  0  0  0  0  0  0  0  0
   -0.4022   -1.0492    6.7190 C   0  0  0  0  0  0  0  0  0  0  0  0
    0.1060    0.1877    6.1151 C   0  0  0  0  0  0  0  0  0  0  0  0
    0.0714    0.1462    4.6038 C   0  0  0  0  0  0  0  0  0  0  0  0
   -1.1429    0.1408    3.8997 C   0  0  0  0  0  0  0  0  0  0  0  0
   -1.1983    0.0928    2.5114 C   0  0  0  0  0  0  0  0  0  0  0  0
   -0.0000   -0.0000    1.7828 C   0  0  0  0  0  0  0  0  0  0  0  0
    1.2301   -0.0000    2.4536 C   0  0  0  0  0  0  0  0  0  0  0  0
    1.2396    0.0859    3.8424 C   0  0  0  0  0  0  0  0  0  0  0  0
    2.4183    0.0881    4.4800 F   0  0  0  0  0  0  0  0  0  0  0  0
    0.0000    0.0000    0.0000 S   0  0  0  0  0  0  0  0  0  0  0  0
   -2.2750    0.2419    4.6953 O   0  0  0  0  0  0  0  0  0  0  0  0
   -3.3735   -0.5157    4.4391 C   0  0  0  0  0  0  0  0  0  0  0  0
   -4.0535   -0.0674    3.3691 F   0  0  0  0  0  0  0  0  0  0  0  0
   -4.1658   -0.4401    5.4940 F   0  0  0  0  0  0  0  0  0  0  0  0
   -3.0586   -1.7905    4.2069 F   0  0  0  0  0  0  0  0  0  0  0  0
   -0.5068    1.0242    6.4874 H   0  0  0  0  0  0  0  0  0  0  0  0
    1.1374    0.3502    6.4578 H   0  0  0  0  0  0  0  0  0  0  0  0
   -2.1534    0.1234    1.9916 H   0  0  0  0  0  0  0  0  0  0  0  0
    2.1718   -0.0761    1.9100 H   0  0  0  0  0  0  0  0  0  0  0  0
   -1.0268   -1.9995   -0.4952 Au  0  0  0  0  0  0  0  0  0  0  0  0
  2  1  3  0  0  0  0
  3 18  1  0  0  0  0
  3 17  1  0  0  0  0
  3  2  1  0  0  0  0
  4  3  1  0  0  0  0
  5  4  1  0  0  0  0
  5 12  1  0  0  0  0
  6  5  2  0  0  0  0
  7  8  2  0  0  0  0
  7  6  1  0  0  0  0
  8  9  1  0  0  0  0
  9 10  1  0  0  0  0
  9  4  2  0  0  0  0
 11  7  1  0  0  0  0
 13 12  1  0  0  0  0
 13 15  1  0  0  0  0
 14 13  1  0  0  0  0
 16 13  1  0  0  0  0
 19  6  1  0  0  0  0
 20  8  1  0  0  0  0
 21 11  1  0  0  0  0
M  END
