313280329.xyz
 OpenBabel07262113473D
CCOc1c(C(=O)Cl)c(S)ccc1C(F)(F)F
 25 25  0  0  0  0  0  0  0  0999 V2000
    4.3870   -0.9684    5.3789 C   0  0  0  0  0  0  0  0  0  0  0  0
    2.8946   -1.1679    5.2418 C   0  0  0  0  0  0  0  0  0  0  0  0
    2.3628   -0.0077    4.5668 O   0  0  0  0  0  0  0  0  0  0  0  0
    1.1638   -0.0866    3.9411 C   0  0  0  0  0  0  0  0  0  0  0  0
    1.1864    0.0000    2.5400 C   0  0  0  0  0  0  0  0  0  0  0  0
    2.5269    0.1174    1.8853 C   0  0  0  0  0  0  0  0  0  0  0  0
    3.0310    1.0979    1.4518 O   0  0  0  0  0  0  0  0  0  0  0  0
    3.3654   -1.4809    1.7722 Cl  0  0  0  0  0  0  0  0  0  0  0  0
    0.0000    0.0000    1.7836 C   0  0  0  0  0  0  0  0  0  0  0  0
    0.0000    0.0000    0.0000 S   0  0  0  0  0  0  0  0  0  0  0  0
   -1.2237   -0.1141    2.4604 C   0  0  0  0  0  0  0  0  0  0  0  0
   -1.2539   -0.2048    3.8488 C   0  0  0  0  0  0  0  0  0  0  0  0
   -0.0764   -0.1829    4.6055 C   0  0  0  0  0  0  0  0  0  0  0  0
   -0.1737   -0.2436    6.1107 C   0  0  0  0  0  0  0  0  0  0  0  0
    0.6719    0.6048    6.7125 F   0  0  0  0  0  0  0  0  0  0  0  0
    0.1060   -1.4805    6.5808 F   0  0  0  0  0  0  0  0  0  0  0  0
   -1.4124    0.0553    6.5346 F   0  0  0  0  0  0  0  0  0  0  0  0
    4.6009   -0.0426    5.9342 H   0  0  0  0  0  0  0  0  0  0  0  0
    4.8620   -0.9037    4.3893 H   0  0  0  0  0  0  0  0  0  0  0  0
    4.8293   -1.8136    5.9285 H   0  0  0  0  0  0  0  0  0  0  0  0
    2.4160   -1.2747    6.2257 H   0  0  0  0  0  0  0  0  0  0  0  0
    2.6628   -2.0624    4.6407 H   0  0  0  0  0  0  0  0  0  0  0  0
    0.7213    2.1398   -0.4797 Au  0  0  0  0  0  0  0  0  0  0  0  0
   -2.1493   -0.1159    1.8837 H   0  0  0  0  0  0  0  0  0  0  0  0
   -2.2119   -0.2695    4.3654 H   0  0  0  0  0  0  0  0  0  0  0  0
  1 20  1  0  0  0  0
  1 18  1  0  0  0  0
  2  1  1  0  0  0  0
  2 21  1  0  0  0  0
  3  2  1  0  0  0  0
  4  3  1  0  0  0  0
  4 13  1  0  0  0  0
  5  4  2  0  0  0  0
  6  5  1  0  0  0  0
  7  6  2  0  0  0  0
  8  6  1  0  0  0  0
  9 11  2  0  0  0  0
  9  5  1  0  0  0  0
 10  9  1  0  0  0  0
 11 12  1  0  0  0  0
 12 25  1  0  0  0  0
 12 13  2  0  0  0  0
 13 14  1  0  0  0  0
 14 17  1  0  0  0  0
 14 16  1  0  0  0  0
 14 15  1  0  0  0  0
 19  1  1  0  0  0  0
 22  2  1  0  0  0  0
 23 10  1  0  0  0  0
 24 11  1  0  0  0  0
M  END
