313227137.xyz
 OpenBabel07262113473D
ClC(=O)c1cc(Cl)c(cc1S)F
 15 15  0  0  0  0  0  0  0  0999 V2000
    3.4785   -1.4776    2.3241 Cl  0  0  0  0  0  0  0  0  0  0  0  0
    2.5185    0.0386    1.9378 C   0  0  0  0  0  0  0  0  0  0  0  0
    2.9895    0.8856    1.2636 O   0  0  0  0  0  0  0  0  0  0  0  0
    1.1703    0.0000    2.5718 C   0  0  0  0  0  0  0  0  0  0  0  0
    1.0849   -0.0284    3.9670 C   0  0  0  0  0  0  0  0  0  0  0  0
   -0.1560    0.0211    4.6006 C   0  0  0  0  0  0  0  0  0  0  0  0
   -0.2795    0.0231    6.3285 Cl  0  0  0  0  0  0  0  0  0  0  0  0
   -1.3173    0.0550    3.8166 C   0  0  0  0  0  0  0  0  0  0  0  0
   -1.2439    0.0188    2.4296 C   0  0  0  0  0  0  0  0  0  0  0  0
   -0.0000    0.0000    1.7791 C   0  0  0  0  0  0  0  0  0  0  0  0
    0.0000    0.0000    0.0000 S   0  0  0  0  0  0  0  0  0  0  0  0
   -2.5083    0.0871    4.4067 F   0  0  0  0  0  0  0  0  0  0  0  0
    1.9897   -0.0766    4.5736 H   0  0  0  0  0  0  0  0  0  0  0  0
   -2.1695   -0.0114    1.8532 H   0  0  0  0  0  0  0  0  0  0  0  0
    1.3217   -1.8350   -0.4791 Au  0  0  0  0  0  0  0  0  0  0  0  0
  2  1  1  0  0  0  0
  2  4  1  0  0  0  0
  3  2  2  0  0  0  0
  4  5  2  0  0  0  0
  5 13  1  0  0  0  0
  5  6  1  0  0  0  0
  6  7  1  0  0  0  0
  8 12  1  0  0  0  0
  8  6  2  0  0  0  0
  9  8  1  0  0  0  0
 10  9  2  0  0  0  0
 10  4  1  0  0  0  0
 11 10  1  0  0  0  0
 14  9  1  0  0  0  0
 15 11  1  0  0  0  0
M  END
