313238268.xyz
 OpenBabel07262113473D
CCOc1cc(F)cc(c1C(=O)Cl)S
 22 22  0  0  0  0  0  0  0  0999 V2000
   -3.8062    0.7415    6.3534 C   0  0  0  0  0  0  0  0  0  0  0  0
   -2.3491    0.5722    5.9786 C   0  0  0  0  0  0  0  0  0  0  0  0
   -2.2962    0.2838    4.5857 O   0  0  0  0  0  0  0  0  0  0  0  0
   -1.1133    0.2136    3.9489 C   0  0  0  0  0  0  0  0  0  0  0  0
    0.1288    0.2190    4.5967 C   0  0  0  0  0  0  0  0  0  0  0  0
    1.2800    0.1173    3.8189 C   0  0  0  0  0  0  0  0  0  0  0  0
    2.4643    0.1190    4.4410 F   0  0  0  0  0  0  0  0  0  0  0  0
    1.2454    0.0000    2.4356 C   0  0  0  0  0  0  0  0  0  0  0  0
   -0.0000    0.0000    1.7857 C   0  0  0  0  0  0  0  0  0  0  0  0
   -1.1804    0.1209    2.5424 C   0  0  0  0  0  0  0  0  0  0  0  0
   -2.5261    0.1577    1.8962 C   0  0  0  0  0  0  0  0  0  0  0  0
   -3.0905   -0.7368    1.3569 O   0  0  0  0  0  0  0  0  0  0  0  0
   -3.2778    1.7951    1.9799 Cl  0  0  0  0  0  0  0  0  0  0  0  0
    0.0000    0.0000    0.0000 S   0  0  0  0  0  0  0  0  0  0  0  0
   -4.3674   -0.1836    6.1538 H   0  0  0  0  0  0  0  0  0  0  0  0
   -3.8987    0.9844    7.4228 H   0  0  0  0  0  0  0  0  0  0  0  0
   -4.2587    1.5527    5.7641 H   0  0  0  0  0  0  0  0  0  0  0  0
   -1.7738    1.4928    6.1848 H   0  0  0  0  0  0  0  0  0  0  0  0
   -1.8819   -0.2525    6.5473 H   0  0  0  0  0  0  0  0  0  0  0  0
    0.2249    0.2894    5.6781 H   0  0  0  0  0  0  0  0  0  0  0  0
    2.1701   -0.0918    1.8672 H   0  0  0  0  0  0  0  0  0  0  0  0
   -0.9151   -2.0618   -0.4869 Au  0  0  0  0  0  0  0  0  0  0  0  0
  1 16  1  0  0  0  0
  2 18  1  0  0  0  0
  2  1  1  0  0  0  0
  2 19  1  0  0  0  0
  3  2  1  0  0  0  0
  4  3  1  0  0  0  0
  4  5  1  0  0  0  0
  5 20  1  0  0  0  0
  6  7  1  0  0  0  0
  6  5  2  0  0  0  0
  8  6  1  0  0  0  0
  9  8  2  0  0  0  0
  9 10  1  0  0  0  0
 10  4  2  0  0  0  0
 11 13  1  0  0  0  0
 11 10  1  0  0  0  0
 12 11  2  0  0  0  0
 14  9  1  0  0  0  0
 15  1  1  0  0  0  0
 17  1  1  0  0  0  0
 21  8  1  0  0  0  0
 22 14  1  0  0  0  0
M  END
