313226112.xyz
 OpenBabel07262113473D
ClC(=O)c1cc(F)c(cc1Cl)S
 15 15  0  0  0  0  0  0  0  0999 V2000
    1.1310    1.5884    6.8021 Cl  0  0  0  0  0  0  0  0  0  0  0  0
    0.0220    0.3812    6.0792 C   0  0  0  0  0  0  0  0  0  0  0  0
   -0.7926   -0.1673    6.7513 O   0  0  0  0  0  0  0  0  0  0  0  0
    0.1211    0.2447    4.5958 C   0  0  0  0  0  0  0  0  0  0  0  0
   -1.1144    0.1836    3.9269 C   0  0  0  0  0  0  0  0  0  0  0  0
   -1.1687    0.0920    2.5471 C   0  0  0  0  0  0  0  0  0  0  0  0
   -2.3648    0.0613    1.9530 F   0  0  0  0  0  0  0  0  0  0  0  0
    0.0000    0.0000    1.7704 C   0  0  0  0  0  0  0  0  0  0  0  0
    1.2303    0.0000    2.4462 C   0  0  0  0  0  0  0  0  0  0  0  0
    1.3005    0.1334    3.8343 C   0  0  0  0  0  0  0  0  0  0  0  0
    2.8784    0.0449    4.5652 Cl  0  0  0  0  0  0  0  0  0  0  0  0
    0.0000    0.0000    0.0000 S   0  0  0  0  0  0  0  0  0  0  0  0
   -2.0431    0.2334    4.4965 H   0  0  0  0  0  0  0  0  0  0  0  0
    2.1509   -0.1184    1.8745 H   0  0  0  0  0  0  0  0  0  0  0  0
   -1.4587   -1.6996   -0.5404 Au  0  0  0  0  0  0  0  0  0  0  0  0
  2  3  2  0  0  0  0
  2  1  1  0  0  0  0
  4  2  1  0  0  0  0
  5 13  1  0  0  0  0
  5  4  1  0  0  0  0
  6  5  2  0  0  0  0
  7  6  1  0  0  0  0
  8  9  2  0  0  0  0
  8  6  1  0  0  0  0
  9 10  1  0  0  0  0
 10 11  1  0  0  0  0
 10  4  2  0  0  0  0
 12  8  1  0  0  0  0
 14  9  1  0  0  0  0
 15 12  1  0  0  0  0
M  END
