313209381.xyz
 OpenBabel07262113463D
FC(Oc1c(S)ccc(c1C(=O)Cl)Cl)F
 19 19  0  0  0  0  0  0  0  0999 V2000
   -2.5079    2.0711    2.0735 F   0  0  0  0  0  0  0  0  0  0  0  0
   -3.2085    0.9487    1.7988 C   0  0  0  0  0  0  0  0  0  0  0  0
   -2.4030   -0.1738    1.9071 O   0  0  0  0  0  0  0  0  0  0  0  0
   -1.1833   -0.1183    2.5334 C   0  0  0  0  0  0  0  0  0  0  0  0
   -0.0000    0.0000    1.7765 C   0  0  0  0  0  0  0  0  0  0  0  0
    0.0000    0.0000    0.0000 S   0  0  0  0  0  0  0  0  0  0  0  0
    1.2263    0.0000    2.4624 C   0  0  0  0  0  0  0  0  0  0  0  0
    1.2879   -0.1158    3.8478 C   0  0  0  0  0  0  0  0  0  0  0  0
    0.1090   -0.2602    4.5807 C   0  0  0  0  0  0  0  0  0  0  0  0
   -1.1354   -0.2776    3.9297 C   0  0  0  0  0  0  0  0  0  0  0  0
   -2.4310   -0.4724    4.6518 C   0  0  0  0  0  0  0  0  0  0  0  0
   -3.3434    0.2906    4.6629 O   0  0  0  0  0  0  0  0  0  0  0  0
   -2.5574   -2.0683    5.4472 Cl  0  0  0  0  0  0  0  0  0  0  0  0
    0.2020   -0.3627    6.3146 Cl  0  0  0  0  0  0  0  0  0  0  0  0
   -3.6429    1.0249    0.5315 F   0  0  0  0  0  0  0  0  0  0  0  0
   -4.0711    0.8905    2.4785 H   0  0  0  0  0  0  0  0  0  0  0  0
   -0.6410    2.1525   -0.5227 Au  0  0  0  0  0  0  0  0  0  0  0  0
    2.1440    0.1008    1.8808 H   0  0  0  0  0  0  0  0  0  0  0  0
    2.2442   -0.0929    4.3710 H   0  0  0  0  0  0  0  0  0  0  0  0
  2  3  1  0  0  0  0
  2  1  1  0  0  0  0
  2 16  1  0  0  0  0
  3  4  1  0  0  0  0
  4 10  2  0  0  0  0
  5  7  2  0  0  0  0
  5  4  1  0  0  0  0
  6  5  1  0  0  0  0
  7  8  1  0  0  0  0
  8 19  1  0  0  0  0
  8  9  2  0  0  0  0
  9 14  1  0  0  0  0
 10  9  1  0  0  0  0
 10 11  1  0  0  0  0
 11 12  2  0  0  0  0
 11 13  1  0  0  0  0
 15  2  1  0  0  0  0
 17  6  1  0  0  0  0
 18  7  1  0  0  0  0
M  END
