313212274.xyz
 OpenBabel07262113463D
N#Cc1c(I)ccc(c1S)Cl
 14 14  0  0  0  0  0  0  0  0999 V2000
   -3.4698   -0.0246    1.1109 N   0  0  0  0  0  0  0  0  0  0  0  0
   -2.4651   -0.0570    1.6909 C   0  0  0  0  0  0  0  0  0  0  0  0
   -1.2494   -0.0908    2.4515 C   0  0  0  0  0  0  0  0  0  0  0  0
   -1.2878   -0.2048    3.8564 C   0  0  0  0  0  0  0  0  0  0  0  0
   -3.1243   -0.3647    4.8957 I   0  0  0  0  0  0  0  0  0  0  0  0
   -0.1018   -0.2039    4.5936 C   0  0  0  0  0  0  0  0  0  0  0  0
    1.1231   -0.0926    3.9397 C   0  0  0  0  0  0  0  0  0  0  0  0
    1.1775   -0.0000    2.5475 C   0  0  0  0  0  0  0  0  0  0  0  0
   -0.0000   -0.0000    1.7713 C   0  0  0  0  0  0  0  0  0  0  0  0
    0.0000    0.0000    0.0000 S   0  0  0  0  0  0  0  0  0  0  0  0
    2.7407    0.1438    1.8033 Cl  0  0  0  0  0  0  0  0  0  0  0  0
   -0.1309   -0.2876    5.6803 H   0  0  0  0  0  0  0  0  0  0  0  0
    2.0529   -0.0865    4.5101 H   0  0  0  0  0  0  0  0  0  0  0  0
    0.9045    2.0679   -0.4878 Au  0  0  0  0  0  0  0  0  0  0  0  0
  1  2  3  0  0  0  0
  2  3  1  0  0  0  0
  3  4  1  0  0  0  0
  4  6  2  0  0  0  0
  4  5  1  0  0  0  0
  6 12  1  0  0  0  0
  7 13  1  0  0  0  0
  7  6  1  0  0  0  0
  8  7  2  0  0  0  0
  9  3  2  0  0  0  0
  9  8  1  0  0  0  0
 10  9  1  0  0  0  0
 11  8  1  0  0  0  0
 14 10  1  0  0  0  0
M  END
