313225856.xyz
 OpenBabel07262113473D
Fc1cc(S)c(c(c1)C(=O)Cl)Cl
 15 15  0  0  0  0  0  0  0  0999 V2000
    2.5359    0.1548    4.3764 F   0  0  0  0  0  0  0  0  0  0  0  0
    1.3347    0.1309    3.7920 C   0  0  0  0  0  0  0  0  0  0  0  0
    1.2531    0.0000    2.4119 C   0  0  0  0  0  0  0  0  0  0  0  0
    0.0000   -0.0000    1.7744 C   0  0  0  0  0  0  0  0  0  0  0  0
    0.0000    0.0000    0.0000 S   0  0  0  0  0  0  0  0  0  0  0  0
   -1.1661    0.0943    2.5691 C   0  0  0  0  0  0  0  0  0  0  0  0
   -1.0626    0.1665    3.9683 C   0  0  0  0  0  0  0  0  0  0  0  0
    0.1952    0.2224    4.5826 C   0  0  0  0  0  0  0  0  0  0  0  0
   -2.2374    0.2272    4.8950 C   0  0  0  0  0  0  0  0  0  0  0  0
   -2.4166    1.0577    5.7233 O   0  0  0  0  0  0  0  0  0  0  0  0
   -3.3201   -1.2016    4.7666 Cl  0  0  0  0  0  0  0  0  0  0  0  0
   -2.7324    0.1623    1.8214 Cl  0  0  0  0  0  0  0  0  0  0  0  0
    2.1649   -0.0964    1.8217 H   0  0  0  0  0  0  0  0  0  0  0  0
   -1.2496   -1.8735   -0.5115 Au  0  0  0  0  0  0  0  0  0  0  0  0
    0.2839    0.3184    5.6651 H   0  0  0  0  0  0  0  0  0  0  0  0
  2  1  1  0  0  0  0
  2  8  2  0  0  0  0
  3  2  1  0  0  0  0
  4  3  2  0  0  0  0
  4  6  1  0  0  0  0
  5  4  1  0  0  0  0
  6  7  2  0  0  0  0
  7  8  1  0  0  0  0
  7  9  1  0  0  0  0
  8 15  1  0  0  0  0
  9 10  2  0  0  0  0
 11  9  1  0  0  0  0
 12  6  1  0  0  0  0
 13  3  1  0  0  0  0
 14  5  1  0  0  0  0
M  END
