313261902.xyz
 OpenBabel07262113473D
Sc1ccc(c(c1C)Br)I
 16 16  0  0  0  0  0  0  0  0999 V2000
    0.0000    0.0000    0.0000 S   0  0  0  0  0  0  0  0  0  0  0  0
   -0.0000    0.0000    1.7825 C   0  0  0  0  0  0  0  0  0  0  0  0
    1.2514   -0.0000    2.4190 C   0  0  0  0  0  0  0  0  0  0  0  0
    1.3458    0.0648    3.8029 C   0  0  0  0  0  0  0  0  0  0  0  0
    0.1814    0.0991    4.5781 C   0  0  0  0  0  0  0  0  0  0  0  0
   -1.0758    0.0868    3.9496 C   0  0  0  0  0  0  0  0  0  0  0  0
   -1.1962    0.0629    2.5428 C   0  0  0  0  0  0  0  0  0  0  0  0
   -2.5387    0.0661    1.8697 C   0  0  0  0  0  0  0  0  0  0  0  0
   -2.6663    0.0811    5.0039 Br  0  0  0  0  0  0  0  0  0  0  0  0
    0.4254    0.1606    6.6822 I   0  0  0  0  0  0  0  0  0  0  0  0
   -0.6839   -2.1434   -0.5135 Au  0  0  0  0  0  0  0  0  0  0  0  0
    2.1548   -0.0544    1.8098 H   0  0  0  0  0  0  0  0  0  0  0  0
    2.3230    0.0736    4.2870 H   0  0  0  0  0  0  0  0  0  0  0  0
   -2.9495   -0.9587    1.8238 H   0  0  0  0  0  0  0  0  0  0  0  0
   -2.4472    0.4313    0.8401 H   0  0  0  0  0  0  0  0  0  0  0  0
   -3.2612    0.6816    2.4201 H   0  0  0  0  0  0  0  0  0  0  0  0
  1  2  1  0  0  0  0
  2  3  2  0  0  0  0
  2  7  1  0  0  0  0
  3  4  1  0  0  0  0
  4 13  1  0  0  0  0
  4  5  2  0  0  0  0
  5 10  1  0  0  0  0
  6  5  1  0  0  0  0
  6  9  1  0  0  0  0
  7  6  2  0  0  0  0
  8 16  1  0  0  0  0
  8  7  1  0  0  0  0
 11  1  1  0  0  0  0
 12  3  1  0  0  0  0
 14  8  1  0  0  0  0
 15  8  1  0  0  0  0
M  END
