313202243.xyz
 OpenBabel07262113463D
Sc1cc(C(F)F)c(c(c1)C(=O)Cl)Cl
 18 18  0  0  0  0  0  0  0  0999 V2000
    0.0000    0.0000    0.0000 S   0  0  0  0  0  0  0  0  0  0  0  0
    0.0000   -0.0000    1.7819 C   0  0  0  0  0  0  0  0  0  0  0  0
   -1.2050   -0.0777    2.4958 C   0  0  0  0  0  0  0  0  0  0  0  0
   -1.2269   -0.1329    3.8893 C   0  0  0  0  0  0  0  0  0  0  0  0
   -2.5725   -0.1735    4.5764 C   0  0  0  0  0  0  0  0  0  0  0  0
   -2.7539    0.9185    5.3627 F   0  0  0  0  0  0  0  0  0  0  0  0
   -2.6900   -1.2733    5.3622 F   0  0  0  0  0  0  0  0  0  0  0  0
   -0.0105   -0.1352    4.5980 C   0  0  0  0  0  0  0  0  0  0  0  0
    1.2064   -0.0940    3.8952 C   0  0  0  0  0  0  0  0  0  0  0  0
    1.2020   -0.0000    2.4976 C   0  0  0  0  0  0  0  0  0  0  0  0
    2.5578   -0.1022    4.5406 C   0  0  0  0  0  0  0  0  0  0  0  0
    3.4159    0.6914    4.3309 O   0  0  0  0  0  0  0  0  0  0  0  0
    2.8580   -1.5415    5.5670 Cl  0  0  0  0  0  0  0  0  0  0  0  0
   -0.0119   -0.1167    6.3323 Cl  0  0  0  0  0  0  0  0  0  0  0  0
   -0.0065    2.2502   -0.4946 Au  0  0  0  0  0  0  0  0  0  0  0  0
   -2.1461   -0.0809    1.9416 H   0  0  0  0  0  0  0  0  0  0  0  0
   -3.3868   -0.1970    3.8314 H   0  0  0  0  0  0  0  0  0  0  0  0
    2.1509    0.0665    1.9635 H   0  0  0  0  0  0  0  0  0  0  0  0
  1  2  1  0  0  0  0
  2  3  2  0  0  0  0
  2 10  1  0  0  0  0
  3  4  1  0  0  0  0
  4  5  1  0  0  0  0
  4  8  2  0  0  0  0
  5  7  1  0  0  0  0
  5  6  1  0  0  0  0
  8 14  1  0  0  0  0
  9 11  1  0  0  0  0
  9  8  1  0  0  0  0
 10  9  2  0  0  0  0
 11 13  1  0  0  0  0
 12 11  2  0  0  0  0
 15  1  1  0  0  0  0
 16  3  1  0  0  0  0
 17  5  1  0  0  0  0
 18 10  1  0  0  0  0
M  END
