313258407.xyz
 OpenBabel07262113473D
COc1cc(C(=O)Cl)c(cc1S)Cl
 19 19  0  0  0  0  0  0  0  0999 V2000
   -3.5695    0.1280    2.6107 C   0  0  0  0  0  0  0  0  0  0  0  0
   -2.3596    0.0334    1.8861 O   0  0  0  0  0  0  0  0  0  0  0  0
   -1.1854    0.0895    2.5462 C   0  0  0  0  0  0  0  0  0  0  0  0
   -1.0798    0.2029    3.9309 C   0  0  0  0  0  0  0  0  0  0  0  0
    0.1689    0.2725    4.5804 C   0  0  0  0  0  0  0  0  0  0  0  0
    0.0751    0.4360    6.0596 C   0  0  0  0  0  0  0  0  0  0  0  0
   -0.7812   -0.0434    6.7357 O   0  0  0  0  0  0  0  0  0  0  0  0
    1.2569    1.5715    6.7864 Cl  0  0  0  0  0  0  0  0  0  0  0  0
    1.3370    0.1492    3.8084 C   0  0  0  0  0  0  0  0  0  0  0  0
    1.2374   -0.0000    2.4230 C   0  0  0  0  0  0  0  0  0  0  0  0
   -0.0000    0.0000    1.7677 C   0  0  0  0  0  0  0  0  0  0  0  0
    0.0000    0.0000    0.0000 S   0  0  0  0  0  0  0  0  0  0  0  0
    2.9326    0.0593    4.5040 Cl  0  0  0  0  0  0  0  0  0  0  0  0
   -3.6393    1.0864    3.1531 H   0  0  0  0  0  0  0  0  0  0  0  0
   -3.6780   -0.7020    3.3299 H   0  0  0  0  0  0  0  0  0  0  0  0
   -4.3766    0.0725    1.8695 H   0  0  0  0  0  0  0  0  0  0  0  0
   -1.9688    0.2617    4.5558 H   0  0  0  0  0  0  0  0  0  0  0  0
    2.1473   -0.1252    1.8361 H   0  0  0  0  0  0  0  0  0  0  0  0
   -1.4752   -1.6892   -0.5409 Au  0  0  0  0  0  0  0  0  0  0  0  0
  1 14  1  0  0  0  0
  1 15  1  0  0  0  0
  2  3  1  0  0  0  0
  2  1  1  0  0  0  0
  3  4  2  0  0  0  0
  4 17  1  0  0  0  0
  4  5  1  0  0  0  0
  5  6  1  0  0  0  0
  6  7  2  0  0  0  0
  6  8  1  0  0  0  0
  9 13  1  0  0  0  0
  9  5  2  0  0  0  0
 10  9  1  0  0  0  0
 11 10  2  0  0  0  0
 11  3  1  0  0  0  0
 12 11  1  0  0  0  0
 16  1  1  0  0  0  0
 18 10  1  0  0  0  0
 19 12  1  0  0  0  0
M  END
