313272036.xyz
 OpenBabel07262113473D
COc1cc(F)cc(c1C(=O)Cl)S
 19 19  0  0  0  0  0  0  0  0999 V2000
   -2.3478    0.4406    5.9783 C   0  0  0  0  0  0  0  0  0  0  0  0
   -2.3126    0.2754    4.5757 O   0  0  0  0  0  0  0  0  0  0  0  0
   -1.1248    0.2019    3.9427 C   0  0  0  0  0  0  0  0  0  0  0  0
    0.1141    0.2056    4.5962 C   0  0  0  0  0  0  0  0  0  0  0  0
    1.2701    0.1098    3.8241 C   0  0  0  0  0  0  0  0  0  0  0  0
    2.4507    0.1114    4.4534 F   0  0  0  0  0  0  0  0  0  0  0  0
    1.2429   -0.0000    2.4405 C   0  0  0  0  0  0  0  0  0  0  0  0
   -0.0000   -0.0000    1.7857 C   0  0  0  0  0  0  0  0  0  0  0  0
   -1.1841    0.1120    2.5365 C   0  0  0  0  0  0  0  0  0  0  0  0
   -2.5262    0.1346    1.8798 C   0  0  0  0  0  0  0  0  0  0  0  0
   -3.0980   -0.7817    1.3863 O   0  0  0  0  0  0  0  0  0  0  0  0
   -3.2524    1.7811    1.8766 Cl  0  0  0  0  0  0  0  0  0  0  0  0
    0.0000    0.0000    0.0000 S   0  0  0  0  0  0  0  0  0  0  0  0
   -1.8304    1.3648    6.2882 H   0  0  0  0  0  0  0  0  0  0  0  0
   -3.4072    0.5103    6.2543 H   0  0  0  0  0  0  0  0  0  0  0  0
   -1.8938   -0.4209    6.4981 H   0  0  0  0  0  0  0  0  0  0  0  0
    0.2065    0.2761    5.6780 H   0  0  0  0  0  0  0  0  0  0  0  0
    2.1703   -0.0874    1.8757 H   0  0  0  0  0  0  0  0  0  0  0  0
   -0.8926   -2.0728   -0.4823 Au  0  0  0  0  0  0  0  0  0  0  0  0
  1 15  1  0  0  0  0
  1 14  1  0  0  0  0
  1 16  1  0  0  0  0
  2  1  1  0  0  0  0
  3  2  1  0  0  0  0
  3  4  1  0  0  0  0
  4 17  1  0  0  0  0
  5  6  1  0  0  0  0
  5  4  2  0  0  0  0
  7  5  1  0  0  0  0
  8  7  2  0  0  0  0
  8  9  1  0  0  0  0
  9  3  2  0  0  0  0
 10  9  1  0  0  0  0
 11 10  2  0  0  0  0
 12 10  1  0  0  0  0
 13  8  1  0  0  0  0
 18  7  1  0  0  0  0
 19 13  1  0  0  0  0
M  END
