313203182.xyz
 OpenBabel07262113463D
Clc1cc(OC(F)(F)F)c(c(c1)Cl)S
 17 17  0  0  0  0  0  0  0  0999 V2000
   -0.1427   -0.2683    6.3240 Cl  0  0  0  0  0  0  0  0  0  0  0  0
   -0.0901   -0.1602    4.5886 C   0  0  0  0  0  0  0  0  0  0  0  0
   -1.2826   -0.1669    3.8630 C   0  0  0  0  0  0  0  0  0  0  0  0
   -1.2202   -0.0753    2.4758 C   0  0  0  0  0  0  0  0  0  0  0  0
   -2.4024   -0.1140    1.7528 O   0  0  0  0  0  0  0  0  0  0  0  0
   -3.1728    0.9986    1.7101 C   0  0  0  0  0  0  0  0  0  0  0  0
   -2.4728    2.0908    1.3769 F   0  0  0  0  0  0  0  0  0  0  0  0
   -4.1254    0.8015    0.8151 F   0  0  0  0  0  0  0  0  0  0  0  0
   -3.7513    1.2552    2.8977 F   0  0  0  0  0  0  0  0  0  0  0  0
   -0.0000   -0.0000    1.7695 C   0  0  0  0  0  0  0  0  0  0  0  0
    1.1799   -0.0000    2.5497 C   0  0  0  0  0  0  0  0  0  0  0  0
    1.1439   -0.0722    3.9432 C   0  0  0  0  0  0  0  0  0  0  0  0
    2.7351    0.1363    1.7896 Cl  0  0  0  0  0  0  0  0  0  0  0  0
    0.0000    0.0000    0.0000 S   0  0  0  0  0  0  0  0  0  0  0  0
   -2.2467   -0.2398    4.3630 H   0  0  0  0  0  0  0  0  0  0  0  0
    2.0703   -0.0643    4.5156 H   0  0  0  0  0  0  0  0  0  0  0  0
    0.6041    2.1810   -0.4562 Au  0  0  0  0  0  0  0  0  0  0  0  0
  2  1  1  0  0  0  0
  3 15  1  0  0  0  0
  3  2  2  0  0  0  0
  4  3  1  0  0  0  0
  5  4  1  0  0  0  0
  6  5  1  0  0  0  0
  6  9  1  0  0  0  0
  7  6  1  0  0  0  0
  8  6  1  0  0  0  0
 10  4  2  0  0  0  0
 10 11  1  0  0  0  0
 11 12  2  0  0  0  0
 12 16  1  0  0  0  0
 12  2  1  0  0  0  0
 13 11  1  0  0  0  0
 14 10  1  0  0  0  0
 17 14  1  0  0  0  0
M  END
