313214332.xyz
 OpenBabel07262113463D
COc1cc(S)c(c(c1)Cl)C#N
 18 18  0  0  0  0  0  0  0  0999 V2000
   -3.8665    0.0001    3.4986 C   0  0  0  0  0  0  0  0  0  0  0  0
   -2.7007    0.0003    4.2990 O   0  0  0  0  0  0  0  0  0  0  0  0
   -1.4913    0.0002    3.7083 C   0  0  0  0  0  0  0  0  0  0  0  0
   -1.2953    0.0001    2.3260 C   0  0  0  0  0  0  0  0  0  0  0  0
   -0.0000   -0.0000    1.7688 C   0  0  0  0  0  0  0  0  0  0  0  0
    0.0000    0.0000    0.0000 S   0  0  0  0  0  0  0  0  0  0  0  0
    1.1215   -0.0000    2.6495 C   0  0  0  0  0  0  0  0  0  0  0  0
    0.8854    0.0002    4.0512 C   0  0  0  0  0  0  0  0  0  0  0  0
   -0.3871    0.0004    4.5843 C   0  0  0  0  0  0  0  0  0  0  0  0
    2.2487    0.0004    5.1340 Cl  0  0  0  0  0  0  0  0  0  0  0  0
    2.4661   -0.0004    2.1837 C   0  0  0  0  0  0  0  0  0  0  0  0
    3.5555   -0.0009    1.7664 N   0  0  0  0  0  0  0  0  0  0  0  0
   -3.9192    0.8988    2.8602 H   0  0  0  0  0  0  0  0  0  0  0  0
   -3.9190   -0.8988    2.8604 H   0  0  0  0  0  0  0  0  0  0  0  0
   -4.7172    0.0000    4.1917 H   0  0  0  0  0  0  0  0  0  0  0  0
   -2.1449    0.0000    1.6455 H   0  0  0  0  0  0  0  0  0  0  0  0
    2.2293   -0.0011   -0.6230 Au  0  0  0  0  0  0  0  0  0  0  0  0
   -0.5517    0.0006    5.6604 H   0  0  0  0  0  0  0  0  0  0  0  0
  1 15  1  0  0  0  0
  1  2  1  0  0  0  0
  3  2  1  0  0  0  0
  3  9  2  0  0  0  0
  4  3  1  0  0  0  0
  5  4  2  0  0  0  0
  5  7  1  0  0  0  0
  6  5  1  0  0  0  0
  7  8  2  0  0  0  0
  8  9  1  0  0  0  0
  8 10  1  0  0  0  0
  9 18  1  0  0  0  0
 11  7  1  0  0  0  0
 12 11  3  0  0  0  0
 13  1  1  0  0  0  0
 14  1  1  0  0  0  0
 16  4  1  0  0  0  0
 17  6  1  0  0  0  0
M  END
