313270244.xyz
 OpenBabel07262113473D
Fc1cc(S)c(c(c1)C(=O)Cl)OC(F)(F)F
 19 19  0  0  0  0  0  0  0  0999 V2000
    2.5164   -0.1396    4.3893 F   0  0  0  0  0  0  0  0  0  0  0  0
    1.3186   -0.1150    3.7996 C   0  0  0  0  0  0  0  0  0  0  0  0
    1.2497    0.0000    2.4159 C   0  0  0  0  0  0  0  0  0  0  0  0
    0.0000    0.0000    1.7747 C   0  0  0  0  0  0  0  0  0  0  0  0
    0.0000    0.0000    0.0000 S   0  0  0  0  0  0  0  0  0  0  0  0
   -1.1645   -0.0811    2.5661 C   0  0  0  0  0  0  0  0  0  0  0  0
   -1.0819   -0.1158    3.9674 C   0  0  0  0  0  0  0  0  0  0  0  0
    0.1757   -0.1743    4.5870 C   0  0  0  0  0  0  0  0  0  0  0  0
   -2.2491   -0.0939    4.9041 C   0  0  0  0  0  0  0  0  0  0  0  0
   -2.3057   -0.6970    5.9260 O   0  0  0  0  0  0  0  0  0  0  0  0
   -3.5345    1.0763    4.4594 Cl  0  0  0  0  0  0  0  0  0  0  0  0
   -2.3946   -0.0650    1.9355 O   0  0  0  0  0  0  0  0  0  0  0  0
   -3.0486   -1.2410    1.7334 C   0  0  0  0  0  0  0  0  0  0  0  0
   -2.2924   -2.1426    1.1074 F   0  0  0  0  0  0  0  0  0  0  0  0
   -4.1160   -0.9755    0.9968 F   0  0  0  0  0  0  0  0  0  0  0  0
   -3.4456   -1.7930    2.8898 F   0  0  0  0  0  0  0  0  0  0  0  0
    2.1676    0.0875    1.8334 H   0  0  0  0  0  0  0  0  0  0  0  0
   -1.6202    1.5481   -0.5504 Au  0  0  0  0  0  0  0  0  0  0  0  0
    0.2535   -0.2389    5.6721 H   0  0  0  0  0  0  0  0  0  0  0  0
  2  1  1  0  0  0  0
  2  8  2  0  0  0  0
  3  2  1  0  0  0  0
  4  3  2  0  0  0  0
  4  6  1  0  0  0  0
  5  4  1  0  0  0  0
  6  7  2  0  0  0  0
  7  8  1  0  0  0  0
  7  9  1  0  0  0  0
  8 19  1  0  0  0  0
  9 10  2  0  0  0  0
 11  9  1  0  0  0  0
 12  6  1  0  0  0  0
 13 12  1  0  0  0  0
 13 16  1  0  0  0  0
 14 13  1  0  0  0  0
 15 13  1  0  0  0  0
 17  3  1  0  0  0  0
 18  5  1  0  0  0  0
M  END
