313276390.xyz
 OpenBabel07262113473D
OCc1ccc(c(c1S)C)F
 20 20  0  0  0  0  0  0  0  0999 V2000
   -2.8332    1.0020    0.8974 O   0  0  0  0  0  0  0  0  0  0  0  0
   -2.5673   -0.0126    1.8301 C   0  0  0  0  0  0  0  0  0  0  0  0
   -1.2154    0.0735    2.5111 C   0  0  0  0  0  0  0  0  0  0  0  0
   -1.1520    0.1586    3.9055 C   0  0  0  0  0  0  0  0  0  0  0  0
    0.0700    0.1785    4.5763 C   0  0  0  0  0  0  0  0  0  0  0  0
    1.2438    0.0991    3.8358 C   0  0  0  0  0  0  0  0  0  0  0  0
    1.2568    0.0000    2.4406 C   0  0  0  0  0  0  0  0  0  0  0  0
    0.0000    0.0000    1.7877 C   0  0  0  0  0  0  0  0  0  0  0  0
    0.0000    0.0000    0.0000 S   0  0  0  0  0  0  0  0  0  0  0  0
    2.5627   -0.1098    1.7026 C   0  0  0  0  0  0  0  0  0  0  0  0
    2.4140    0.1139    4.4989 F   0  0  0  0  0  0  0  0  0  0  0  0
   -2.1339    0.9494    0.2243 H   0  0  0  0  0  0  0  0  0  0  0  0
   -2.6483   -1.0244    1.3680 H   0  0  0  0  0  0  0  0  0  0  0  0
   -3.3542    0.0427    2.5973 H   0  0  0  0  0  0  0  0  0  0  0  0
   -2.0802    0.2185    4.4787 H   0  0  0  0  0  0  0  0  0  0  0  0
    0.1311    0.2564    5.6630 H   0  0  0  0  0  0  0  0  0  0  0  0
   -0.7609   -2.1177   -0.5224 Au  0  0  0  0  0  0  0  0  0  0  0  0
    2.7294    0.7644    1.0543 H   0  0  0  0  0  0  0  0  0  0  0  0
    2.5633   -0.9921    1.0443 H   0  0  0  0  0  0  0  0  0  0  0  0
    3.4011   -0.1860    2.4054 H   0  0  0  0  0  0  0  0  0  0  0  0
  1  2  1  0  0  0  0
  2  3  1  0  0  0  0
  2 14  1  0  0  0  0
  3  4  2  0  0  0  0
  4 15  1  0  0  0  0
  4  5  1  0  0  0  0
  5 16  1  0  0  0  0
  6 11  1  0  0  0  0
  6  5  2  0  0  0  0
  7  6  1  0  0  0  0
  8  7  2  0  0  0  0
  8  3  1  0  0  0  0
  9  8  1  0  0  0  0
 10 20  1  0  0  0  0
 10  7  1  0  0  0  0
 12  1  1  0  0  0  0
 13  2  1  0  0  0  0
 17  9  1  0  0  0  0
 18 10  1  0  0  0  0
 19 10  1  0  0  0  0
M  END
