313275814.xyz
 OpenBabel07262113473D
CCOC(=O)c1cc(F)c(c(c1)S)F
 22 22  0  0  0  0  0  0  0  0999 V2000
   -5.9328    0.4463    3.4169 C   0  0  0  0  0  0  0  0  0  0  0  0
   -4.8647    0.4666    4.4880 C   0  0  0  0  0  0  0  0  0  0  0  0
   -3.5875    0.3513    3.8393 O   0  0  0  0  0  0  0  0  0  0  0  0
   -2.5063    0.3499    4.6342 C   0  0  0  0  0  0  0  0  0  0  0  0
   -2.5614    0.4398    5.8390 O   0  0  0  0  0  0  0  0  0  0  0  0
   -1.2339    0.2251    3.8628 C   0  0  0  0  0  0  0  0  0  0  0  0
   -0.0343    0.2135    4.5898 C   0  0  0  0  0  0  0  0  0  0  0  0
    1.1675    0.0910    3.9095 C   0  0  0  0  0  0  0  0  0  0  0  0
    2.3254    0.0707    4.5728 F   0  0  0  0  0  0  0  0  0  0  0  0
    1.1937    0.0000    2.5141 C   0  0  0  0  0  0  0  0  0  0  0  0
   -0.0000   -0.0000    1.7750 C   0  0  0  0  0  0  0  0  0  0  0  0
   -1.2158    0.1073    2.4688 C   0  0  0  0  0  0  0  0  0  0  0  0
    0.0000    0.0000    0.0000 S   0  0  0  0  0  0  0  0  0  0  0  0
    2.3704   -0.1227    1.9081 F   0  0  0  0  0  0  0  0  0  0  0  0
   -5.8975   -0.4930    2.8442 H   0  0  0  0  0  0  0  0  0  0  0  0
   -6.9287    0.5334    3.8778 H   0  0  0  0  0  0  0  0  0  0  0  0
   -5.8017    1.2841    2.7151 H   0  0  0  0  0  0  0  0  0  0  0  0
   -4.8812    1.3990    5.0750 H   0  0  0  0  0  0  0  0  0  0  0  0
   -4.9758   -0.3645    5.2028 H   0  0  0  0  0  0  0  0  0  0  0  0
   -0.0494    0.2925    5.6773 H   0  0  0  0  0  0  0  0  0  0  0  0
   -2.1505    0.0979    1.9102 H   0  0  0  0  0  0  0  0  0  0  0  0
    1.0439   -1.9859   -0.5221 Au  0  0  0  0  0  0  0  0  0  0  0  0
  1 16  1  0  0  0  0
  1  2  1  0  0  0  0
  2 18  1  0  0  0  0
  2 19  1  0  0  0  0
  3  2  1  0  0  0  0
  3  4  1  0  0  0  0
  4  5  2  0  0  0  0
  6  7  2  0  0  0  0
  6  4  1  0  0  0  0
  7 20  1  0  0  0  0
  8  9  1  0  0  0  0
  8  7  1  0  0  0  0
 10  8  2  0  0  0  0
 11 12  2  0  0  0  0
 11 10  1  0  0  0  0
 12  6  1  0  0  0  0
 13 11  1  0  0  0  0
 14 10  1  0  0  0  0
 15  1  1  0  0  0  0
 17  1  1  0  0  0  0
 21 12  1  0  0  0  0
 22 13  1  0  0  0  0
M  END
