313293546.xyz
 OpenBabel07262113473D
ClC(=O)c1cc(F)c(cc1S)[N+](=O)[O-]
 17 17  0  0  0  0  0  0  0  0999 V2000
   -3.4133    1.4835    2.1519 Cl  0  0  0  0  0  0  0  0  0  0  0  0
   -2.5213   -0.0937    1.9152 C   0  0  0  0  0  0  0  0  0  0  0  0
   -3.0152   -0.9905    1.3298 O   0  0  0  0  0  0  0  0  0  0  0  0
   -1.1750   -0.0462    2.5643 C   0  0  0  0  0  0  0  0  0  0  0  0
   -1.1093   -0.0560    3.9578 C   0  0  0  0  0  0  0  0  0  0  0  0
    0.1255   -0.0685    4.6028 C   0  0  0  0  0  0  0  0  0  0  0  0
    0.1435   -0.1235    5.9240 F   0  0  0  0  0  0  0  0  0  0  0  0
    1.3004   -0.0433    3.8364 C   0  0  0  0  0  0  0  0  0  0  0  0
    1.2323   -0.0000    2.4453 C   0  0  0  0  0  0  0  0  0  0  0  0
   -0.0000   -0.0000    1.7796 C   0  0  0  0  0  0  0  0  0  0  0  0
    0.0000    0.0000    0.0000 S   0  0  0  0  0  0  0  0  0  0  0  0
    2.6355   -0.0243    4.4633 N   0  0  0  0  0  0  0  0  0  0  0  0
    3.5714   -0.3919    3.7732 O   0  0  0  0  0  0  0  0  0  0  0  0
    2.7110    0.3698    5.6119 O   0  0  0  0  0  0  0  0  0  0  0  0
   -2.0135   -0.0664    4.5683 H   0  0  0  0  0  0  0  0  0  0  0  0
    2.1644    0.0397    1.8827 H   0  0  0  0  0  0  0  0  0  0  0  0
   -1.2197    1.9057   -0.4735 Au  0  0  0  0  0  0  0  0  0  0  0  0
  2  1  1  0  0  0  0
  2  4  1  0  0  0  0
  3  2  2  0  0  0  0
  4  5  2  0  0  0  0
  5 15  1  0  0  0  0
  5  6  1  0  0  0  0
  6  7  1  0  0  0  0
  8 12  1  0  0  0  0
  8  6  2  0  0  0  0
  9  8  1  0  0  0  0
 10  9  2  0  0  0  0
 10  4  1  0  0  0  0
 11 10  1  0  0  0  0
 12 14  2  0  0  0  0
 13 12  2  0  0  0  0
 16  9  1  0  0  0  0
 17 11  1  0  0  0  0
M  END
