313204555.xyz
 OpenBabel07262113463D
ClCC(=O)c1ccc(c(c1C(F)F)S)Cl
 21 21  0  0  0  0  0  0  0  0999 V2000
   -1.7491   -2.4817    6.1210 Cl  0  0  0  0  0  0  0  0  0  0  0  0
   -2.3620   -0.7904    6.1702 C   0  0  0  0  0  0  0  0  0  0  0  0
   -2.4069   -0.1348    4.7879 C   0  0  0  0  0  0  0  0  0  0  0  0
   -3.4360    0.4181    4.4585 O   0  0  0  0  0  0  0  0  0  0  0  0
   -1.1732   -0.1592    3.9341 C   0  0  0  0  0  0  0  0  0  0  0  0
    0.0697   -0.1980    4.5907 C   0  0  0  0  0  0  0  0  0  0  0  0
    1.2577   -0.1013    3.8840 C   0  0  0  0  0  0  0  0  0  0  0  0
    1.2240    0.0000    2.4927 C   0  0  0  0  0  0  0  0  0  0  0  0
    0.0000    0.0000    1.7840 C   0  0  0  0  0  0  0  0  0  0  0  0
   -1.2081   -0.0693    2.5230 C   0  0  0  0  0  0  0  0  0  0  0  0
   -2.5401   -0.0883    1.7836 C   0  0  0  0  0  0  0  0  0  0  0  0
   -2.7117    1.0660    1.0846 F   0  0  0  0  0  0  0  0  0  0  0  0
   -2.5745   -1.1297    0.9077 F   0  0  0  0  0  0  0  0  0  0  0  0
    0.0000    0.0000    0.0000 S   0  0  0  0  0  0  0  0  0  0  0  0
    2.7420    0.1520    1.6675 Cl  0  0  0  0  0  0  0  0  0  0  0  0
   -1.7258   -0.2178    6.8605 H   0  0  0  0  0  0  0  0  0  0  0  0
   -3.3874   -0.8031    6.5556 H   0  0  0  0  0  0  0  0  0  0  0  0
    0.1170   -0.2942    5.6744 H   0  0  0  0  0  0  0  0  0  0  0  0
    2.2189   -0.1073    4.3985 H   0  0  0  0  0  0  0  0  0  0  0  0
   -3.3911   -0.1908    2.4616 H   0  0  0  0  0  0  0  0  0  0  0  0
    0.4934    2.2107   -0.4243 Au  0  0  0  0  0  0  0  0  0  0  0  0
  1  2  1  0  0  0  0
  2 17  1  0  0  0  0
  2 16  1  0  0  0  0
  3  2  1  0  0  0  0
  4  3  2  0  0  0  0
  5  6  1  0  0  0  0
  5  3  1  0  0  0  0
  6 18  1  0  0  0  0
  7 19  1  0  0  0  0
  7  6  2  0  0  0  0
  8  7  1  0  0  0  0
  9  8  2  0  0  0  0
  9 10  1  0  0  0  0
 10  5  2  0  0  0  0
 11 20  1  0  0  0  0
 11 10  1  0  0  0  0
 12 11  1  0  0  0  0
 13 11  1  0  0  0  0
 14  9  1  0  0  0  0
 15  8  1  0  0  0  0
 21 14  1  0  0  0  0
M  END
