313226624.xyz
 OpenBabel07262113473D
Sc1cc(F)c(c(c1)Cl)C(=O)Cl
 15 15  0  0  0  0  0  0  0  0999 V2000
    0.0000    0.0000    0.0000 S   0  0  0  0  0  0  0  0  0  0  0  0
    0.0000    0.0000    1.7774 C   0  0  0  0  0  0  0  0  0  0  0  0
   -1.2444    0.0930    2.4191 C   0  0  0  0  0  0  0  0  0  0  0  0
   -1.2870    0.2051    3.8028 C   0  0  0  0  0  0  0  0  0  0  0  0
   -2.4791    0.2725    4.3964 F   0  0  0  0  0  0  0  0  0  0  0  0
   -0.1334    0.1913    4.5994 C   0  0  0  0  0  0  0  0  0  0  0  0
    1.1040    0.0699    3.9329 C   0  0  0  0  0  0  0  0  0  0  0  0
    1.1771   -0.0000    2.5441 C   0  0  0  0  0  0  0  0  0  0  0  0
    2.5918    0.0714    4.8353 Cl  0  0  0  0  0  0  0  0  0  0  0  0
   -0.2142    0.2559    6.0878 C   0  0  0  0  0  0  0  0  0  0  0  0
    0.2577   -0.5180    6.8521 O   0  0  0  0  0  0  0  0  0  0  0  0
   -1.0875    1.7184    6.6675 Cl  0  0  0  0  0  0  0  0  0  0  0  0
    1.4789   -1.6711   -0.5556 Au  0  0  0  0  0  0  0  0  0  0  0  0
   -2.1790    0.0637    1.8587 H   0  0  0  0  0  0  0  0  0  0  0  0
    2.1526   -0.0529    2.0625 H   0  0  0  0  0  0  0  0  0  0  0  0
  1  2  1  0  0  0  0
  2  3  2  0  0  0  0
  2  8  1  0  0  0  0
  3  4  1  0  0  0  0
  4  5  1  0  0  0  0
  4  6  2  0  0  0  0
  6 10  1  0  0  0  0
  7  6  1  0  0  0  0
  7  9  1  0  0  0  0
  8  7  2  0  0  0  0
 10 12  1  0  0  0  0
 10 11  2  0  0  0  0
 13  1  1  0  0  0  0
 14  3  1  0  0  0  0
 15  8  1  0  0  0  0
M  END
