313238263.xyz
 OpenBabel07262113473D
CCOc1cc(F)cc(c1S)C(=O)C
 25 25  0  0  0  0  0  0  0  0999 V2000
    3.9296    1.6521    2.6293 C   0  0  0  0  0  0  0  0  0  0  0  0
    3.6511    0.2075    2.2430 C   0  0  0  0  0  0  0  0  0  0  0  0
    2.3538    0.0403    1.6813 O   0  0  0  0  0  0  0  0  0  0  0  0
    1.2544    0.0000    2.4551 C   0  0  0  0  0  0  0  0  0  0  0  0
    1.3013   -0.0152    3.8537 C   0  0  0  0  0  0  0  0  0  0  0  0
    0.1069   -0.0209    4.5668 C   0  0  0  0  0  0  0  0  0  0  0  0
    0.1673   -0.0350    5.9039 F   0  0  0  0  0  0  0  0  0  0  0  0
   -1.1288   -0.0017    3.9406 C   0  0  0  0  0  0  0  0  0  0  0  0
   -1.1903   -0.0027    2.5395 C   0  0  0  0  0  0  0  0  0  0  0  0
   -0.0000    0.0000    1.7738 C   0  0  0  0  0  0  0  0  0  0  0  0
    0.0000    0.0000    0.0000 S   0  0  0  0  0  0  0  0  0  0  0  0
   -2.6066    0.0056    1.9900 C   0  0  0  0  0  0  0  0  0  0  0  0
   -3.4685    0.5807    2.6224 O   0  0  0  0  0  0  0  0  0  0  0  0
   -2.9609   -0.7653    0.7376 C   0  0  0  0  0  0  0  0  0  0  0  0
    3.8167    2.3071    1.7520 H   0  0  0  0  0  0  0  0  0  0  0  0
    4.9592    1.7513    3.0074 H   0  0  0  0  0  0  0  0  0  0  0  0
    3.2421    2.0063    3.4117 H   0  0  0  0  0  0  0  0  0  0  0  0
    3.7921   -0.4789    3.0957 H   0  0  0  0  0  0  0  0  0  0  0  0
    4.3367   -0.1177    1.4476 H   0  0  0  0  0  0  0  0  0  0  0  0
    2.2382   -0.0193    4.4072 H   0  0  0  0  0  0  0  0  0  0  0  0
   -2.0486    0.0217    4.5239 H   0  0  0  0  0  0  0  0  0  0  0  0
    0.9377    2.0511   -0.5032 Au  0  0  0  0  0  0  0  0  0  0  0  0
   -4.0225   -1.0419    0.8027 H   0  0  0  0  0  0  0  0  0  0  0  0
   -2.8126   -0.1234   -0.1432 H   0  0  0  0  0  0  0  0  0  0  0  0
   -2.3332   -1.6568    0.5984 H   0  0  0  0  0  0  0  0  0  0  0  0
  1 16  1  0  0  0  0
  1 17  1  0  0  0  0
  2  1  1  0  0  0  0
  2 18  1  0  0  0  0
  3  2  1  0  0  0  0
  3  4  1  0  0  0  0
  4  5  1  0  0  0  0
  5 20  1  0  0  0  0
  5  6  2  0  0  0  0
  6  7  1  0  0  0  0
  8 21  1  0  0  0  0
  8  6  1  0  0  0  0
  9  8  2  0  0  0  0
 10  4  2  0  0  0  0
 10  9  1  0  0  0  0
 11 10  1  0  0  0  0
 12  9  1  0  0  0  0
 12 13  2  0  0  0  0
 14 23  1  0  0  0  0
 14 12  1  0  0  0  0
 15  1  1  0  0  0  0
 19  2  1  0  0  0  0
 22 11  1  0  0  0  0
 24 14  1  0  0  0  0
 25 14  1  0  0  0  0
M  END
