313217029.xyz
 OpenBabel07262113463D
OCc1cc(Cl)cc(c1C#N)S
 18 18  0  0  0  0  0  0  0  0999 V2000
    1.6963    0.0005    6.3203 O   0  0  0  0  0  0  0  0  0  0  0  0
    2.1219    0.0004    4.9812 C   0  0  0  0  0  0  0  0  0  0  0  0
    0.9223    0.0003    4.0619 C   0  0  0  0  0  0  0  0  0  0  0  0
   -0.3599    0.0005    4.5909 C   0  0  0  0  0  0  0  0  0  0  0  0
   -1.4529    0.0003    3.7158 C   0  0  0  0  0  0  0  0  0  0  0  0
   -3.0651    0.0005    4.3779 Cl  0  0  0  0  0  0  0  0  0  0  0  0
   -1.2904    0.0001    2.3363 C   0  0  0  0  0  0  0  0  0  0  0  0
    0.0000   -0.0000    1.7691 C   0  0  0  0  0  0  0  0  0  0  0  0
    1.1152   -0.0000    2.6537 C   0  0  0  0  0  0  0  0  0  0  0  0
    2.4632   -0.0002    2.1880 C   0  0  0  0  0  0  0  0  0  0  0  0
    3.5865   -0.0004    1.8726 N   0  0  0  0  0  0  0  0  0  0  0  0
    0.0000    0.0000    0.0000 S   0  0  0  0  0  0  0  0  0  0  0  0
    2.4748    0.0006    6.8889 H   0  0  0  0  0  0  0  0  0  0  0  0
    2.7454    0.8864    4.7438 H   0  0  0  0  0  0  0  0  0  0  0  0
    2.7455   -0.8854    4.7439 H   0  0  0  0  0  0  0  0  0  0  0  0
   -0.4983    0.0008    5.6696 H   0  0  0  0  0  0  0  0  0  0  0  0
   -2.1673    0.0000    1.6885 H   0  0  0  0  0  0  0  0  0  0  0  0
    2.2238    0.0000   -0.6225 Au  0  0  0  0  0  0  0  0  0  0  0  0
  1 13  1  0  0  0  0
  2  1  1  0  0  0  0
  3  4  1  0  0  0  0
  3  2  1  0  0  0  0
  4 16  1  0  0  0  0
  5  6  1  0  0  0  0
  5  4  2  0  0  0  0
  7  5  1  0  0  0  0
  8  7  2  0  0  0  0
  8  9  1  0  0  0  0
  9  3  2  0  0  0  0
 10  9  1  0  0  0  0
 11 10  3  0  0  0  0
 12  8  1  0  0  0  0
 14  2  1  0  0  0  0
 15  2  1  0  0  0  0
 17  7  1  0  0  0  0
 18 12  1  0  0  0  0
M  END
