313279049.xyz
 OpenBabel07262113473D
CCOc1c(ccc(c1C(F)(F)F)S)C(=O)Cl
 25 25  0  0  0  0  0  0  0  0999 V2000
   -3.6129   -1.0172    6.2922 C   0  0  0  0  0  0  0  0  0  0  0  0
   -2.5929   -1.2696    5.2072 C   0  0  0  0  0  0  0  0  0  0  0  0
   -1.9751   -0.0069    4.8939 O   0  0  0  0  0  0  0  0  0  0  0  0
   -0.9283   -0.0097    4.0471 C   0  0  0  0  0  0  0  0  0  0  0  0
    0.3839   -0.0029    4.5875 C   0  0  0  0  0  0  0  0  0  0  0  0
    1.4803    0.0416    3.7174 C   0  0  0  0  0  0  0  0  0  0  0  0
    1.2910   -0.0000    2.3461 C   0  0  0  0  0  0  0  0  0  0  0  0
   -0.0000   -0.0000    1.7853 C   0  0  0  0  0  0  0  0  0  0  0  0
   -1.1261    0.0647    2.6469 C   0  0  0  0  0  0  0  0  0  0  0  0
   -2.5508    0.1743    2.1181 C   0  0  0  0  0  0  0  0  0  0  0  0
   -3.3700    0.8302    2.9443 F   0  0  0  0  0  0  0  0  0  0  0  0
   -3.0922   -1.0632    1.9344 F   0  0  0  0  0  0  0  0  0  0  0  0
   -2.6218    0.8067    0.9436 F   0  0  0  0  0  0  0  0  0  0  0  0
    0.0000    0.0000    0.0000 S   0  0  0  0  0  0  0  0  0  0  0  0
    0.5630   -0.0724    6.0599 C   0  0  0  0  0  0  0  0  0  0  0  0
   -0.1771   -0.5416    6.8622 O   0  0  0  0  0  0  0  0  0  0  0  0
    2.1239    0.6737    6.6319 Cl  0  0  0  0  0  0  0  0  0  0  0  0
   -4.3653   -0.2907    5.9499 H   0  0  0  0  0  0  0  0  0  0  0  0
   -4.1241   -1.9556    6.5566 H   0  0  0  0  0  0  0  0  0  0  0  0
   -3.1175   -0.6185    7.1893 H   0  0  0  0  0  0  0  0  0  0  0  0
   -3.0598   -1.6789    4.2961 H   0  0  0  0  0  0  0  0  0  0  0  0
   -1.8140   -1.9696    5.5501 H   0  0  0  0  0  0  0  0  0  0  0  0
    2.4879    0.0625    4.1315 H   0  0  0  0  0  0  0  0  0  0  0  0
    2.1491   -0.0480    1.6750 H   0  0  0  0  0  0  0  0  0  0  0  0
   -1.2784   -1.8324   -0.5625 Au  0  0  0  0  0  0  0  0  0  0  0  0
  1 19  1  0  0  0  0
  1 20  1  0  0  0  0
  2 22  1  0  0  0  0
  2  1  1  0  0  0  0
  3  2  1  0  0  0  0
  4  5  1  0  0  0  0
  4  3  1  0  0  0  0
  5 15  1  0  0  0  0
  6 23  1  0  0  0  0
  6  5  2  0  0  0  0
  7  6  1  0  0  0  0
  8  7  2  0  0  0  0
  8  9  1  0  0  0  0
  9  4  2  0  0  0  0
 10  9  1  0  0  0  0
 10 11  1  0  0  0  0
 12 10  1  0  0  0  0
 13 10  1  0  0  0  0
 14  8  1  0  0  0  0
 15 17  1  0  0  0  0
 15 16  2  0  0  0  0
 18  1  1  0  0  0  0
 21  2  1  0  0  0  0
 24  7  1  0  0  0  0
 25 14  1  0  0  0  0
M  END
