313205333.xyz
 OpenBabel07262113463D
COc1cc(S)cc(c1Cl)OC
 21 21  0  0  0  0  0  0  0  0999 V2000
    3.6024    0.0019    3.9812 C   0  0  0  0  0  0  0  0  0  0  0  0
    2.3479    0.0762    4.6225 O   0  0  0  0  0  0  0  0  0  0  0  0
    1.2277    0.0724    3.8720 C   0  0  0  0  0  0  0  0  0  0  0  0
    1.2194    0.0000    2.4724 C   0  0  0  0  0  0  0  0  0  0  0  0
   -0.0000    0.0000    1.7809 C   0  0  0  0  0  0  0  0  0  0  0  0
    0.0000    0.0000    0.0000 S   0  0  0  0  0  0  0  0  0  0  0  0
   -1.2172    0.0786    2.4717 C   0  0  0  0  0  0  0  0  0  0  0  0
   -1.2217    0.1519    3.8713 C   0  0  0  0  0  0  0  0  0  0  0  0
    0.0039    0.1467    4.5678 C   0  0  0  0  0  0  0  0  0  0  0  0
    0.0062    0.2346    6.2978 Cl  0  0  0  0  0  0  0  0  0  0  0  0
   -2.3398    0.2286    4.6210 O   0  0  0  0  0  0  0  0  0  0  0  0
   -3.5960    0.2360    3.9789 C   0  0  0  0  0  0  0  0  0  0  0  0
    3.7681    0.8615    3.3081 H   0  0  0  0  0  0  0  0  0  0  0  0
    4.3576    0.0183    4.7774 H   0  0  0  0  0  0  0  0  0  0  0  0
    3.7093   -0.9313    3.4007 H   0  0  0  0  0  0  0  0  0  0  0  0
    2.1454   -0.0596    1.9052 H   0  0  0  0  0  0  0  0  0  0  0  0
   -0.0619   -2.2454   -0.5199 Au  0  0  0  0  0  0  0  0  0  0  0  0
   -2.1449    0.0783    1.9039 H   0  0  0  0  0  0  0  0  0  0  0  0
   -3.7049    1.1043    3.3055 H   0  0  0  0  0  0  0  0  0  0  0  0
   -3.7632   -0.6885    3.3986 H   0  0  0  0  0  0  0  0  0  0  0  0
   -4.3491    0.3019    4.7746 H   0  0  0  0  0  0  0  0  0  0  0  0
  1  2  1  0  0  0  0
  1 14  1  0  0  0  0
  3  9  1  0  0  0  0
  3  2  1  0  0  0  0
  4  3  2  0  0  0  0
  5  7  2  0  0  0  0
  5  4  1  0  0  0  0
  6  5  1  0  0  0  0
  7  8  1  0  0  0  0
  8  9  2  0  0  0  0
  8 11  1  0  0  0  0
  9 10  1  0  0  0  0
 12 11  1  0  0  0  0
 12 21  1  0  0  0  0
 13  1  1  0  0  0  0
 15  1  1  0  0  0  0
 16  4  1  0  0  0  0
 17  6  1  0  0  0  0
 18  7  1  0  0  0  0
 19 12  1  0  0  0  0
 20 12  1  0  0  0  0
M  END
