313294569.xyz
 OpenBabel07262113473D
[O-][N+](=O)c1c(ccc(c1F)S)C(=O)Cl
 17 17  0  0  0  0  0  0  0  0999 V2000
    3.2587   -0.6794    4.3940 O   0  0  0  0  0  0  0  0  0  0  0  0
    2.4157    0.1533    4.6608 N   0  0  0  0  0  0  0  0  0  0  0  0
    2.5173    1.0518    5.4777 O   0  0  0  0  0  0  0  0  0  0  0  0
    1.1424    0.0883    3.9210 C   0  0  0  0  0  0  0  0  0  0  0  0
   -0.0816    0.2171    4.5962 C   0  0  0  0  0  0  0  0  0  0  0  0
   -1.2589    0.2561    3.8409 C   0  0  0  0  0  0  0  0  0  0  0  0
   -1.2194    0.1246    2.4542 C   0  0  0  0  0  0  0  0  0  0  0  0
   -0.0000   -0.0000    1.7698 C   0  0  0  0  0  0  0  0  0  0  0  0
    1.1846   -0.0000    2.5315 C   0  0  0  0  0  0  0  0  0  0  0  0
    2.3578   -0.0668    1.9156 F   0  0  0  0  0  0  0  0  0  0  0  0
    0.0000    0.0000    0.0000 S   0  0  0  0  0  0  0  0  0  0  0  0
   -0.2323    0.2797    6.0822 C   0  0  0  0  0  0  0  0  0  0  0  0
   -0.9743    1.0058    6.6569 O   0  0  0  0  0  0  0  0  0  0  0  0
    0.6818   -1.0012    6.9483 Cl  0  0  0  0  0  0  0  0  0  0  0  0
   -2.2132    0.3577    4.3593 H   0  0  0  0  0  0  0  0  0  0  0  0
   -2.1449    0.1179    1.8760 H   0  0  0  0  0  0  0  0  0  0  0  0
    1.3561   -1.7836   -0.5413 Au  0  0  0  0  0  0  0  0  0  0  0  0
  1  2  2  0  0  0  0
  2  3  2  0  0  0  0
  4  5  1  0  0  0  0
  4  2  1  0  0  0  0
  5 12  1  0  0  0  0
  6 15  1  0  0  0  0
  6  5  2  0  0  0  0
  7  6  1  0  0  0  0
  8  7  2  0  0  0  0
  8  9  1  0  0  0  0
  9  4  2  0  0  0  0
 10  9  1  0  0  0  0
 11  8  1  0  0  0  0
 12 13  2  0  0  0  0
 12 14  1  0  0  0  0
 16  7  1  0  0  0  0
 17 11  1  0  0  0  0
M  END
