313261734.xyz
 OpenBabel07262113473D
COc1cc(S)c(c(c1)C(=O)Cl)Cl
 19 19  0  0  0  0  0  0  0  0999 V2000
   -3.7315    0.3744    3.7486 C   0  0  0  0  0  0  0  0  0  0  0  0
   -2.5179    0.3599    4.4706 O   0  0  0  0  0  0  0  0  0  0  0  0
   -1.3552    0.2346    3.7952 C   0  0  0  0  0  0  0  0  0  0  0  0
   -1.2554    0.0960    2.4076 C   0  0  0  0  0  0  0  0  0  0  0  0
    0.0000    0.0000    1.7756 C   0  0  0  0  0  0  0  0  0  0  0  0
    0.0000    0.0000    0.0000 S   0  0  0  0  0  0  0  0  0  0  0  0
    1.1685   -0.0000    2.5625 C   0  0  0  0  0  0  0  0  0  0  0  0
    1.0617    0.0801    3.9632 C   0  0  0  0  0  0  0  0  0  0  0  0
   -0.1852    0.2335    4.5694 C   0  0  0  0  0  0  0  0  0  0  0  0
    2.2335    0.0407    4.8933 C   0  0  0  0  0  0  0  0  0  0  0  0
    2.4894    0.8521    5.7203 O   0  0  0  0  0  0  0  0  0  0  0  0
    3.1860   -1.4830    4.7695 Cl  0  0  0  0  0  0  0  0  0  0  0  0
    2.7395   -0.0588    1.8197 Cl  0  0  0  0  0  0  0  0  0  0  0  0
   -3.8894   -0.5703    3.1989 H   0  0  0  0  0  0  0  0  0  0  0  0
   -4.5324    0.4966    4.4888 H   0  0  0  0  0  0  0  0  0  0  0  0
   -3.7690    1.2149    3.0334 H   0  0  0  0  0  0  0  0  0  0  0  0
   -2.1408    0.0639    1.7756 H   0  0  0  0  0  0  0  0  0  0  0  0
    1.0859   -1.9726   -0.5124 Au  0  0  0  0  0  0  0  0  0  0  0  0
   -0.2662    0.3324    5.6523 H   0  0  0  0  0  0  0  0  0  0  0  0
  1  2  1  0  0  0  0
  1 15  1  0  0  0  0
  3  2  1  0  0  0  0
  3  9  2  0  0  0  0
  4  3  1  0  0  0  0
  5  4  2  0  0  0  0
  5  7  1  0  0  0  0
  6  5  1  0  0  0  0
  7  8  2  0  0  0  0
  8  9  1  0  0  0  0
  8 10  1  0  0  0  0
  9 19  1  0  0  0  0
 10 11  2  0  0  0  0
 12 10  1  0  0  0  0
 13  7  1  0  0  0  0
 14  1  1  0  0  0  0
 16  1  1  0  0  0  0
 17  4  1  0  0  0  0
 18  6  1  0  0  0  0
M  END
