313201989.xyz
 OpenBabel07262113463D
OCc1c(S)ccc(c1Cl)C(F)F
 20 20  0  0  0  0  0  0  0  0999 V2000
   -3.1041   -1.2122    1.7297 O   0  0  0  0  0  0  0  0  0  0  0  0
   -2.5538    0.0861    1.9230 C   0  0  0  0  0  0  0  0  0  0  0  0
   -1.1852    0.0484    2.5654 C   0  0  0  0  0  0  0  0  0  0  0  0
    0.0000   -0.0000    1.7877 C   0  0  0  0  0  0  0  0  0  0  0  0
    0.0000    0.0000    0.0000 S   0  0  0  0  0  0  0  0  0  0  0  0
    1.2519   -0.0000    2.4192 C   0  0  0  0  0  0  0  0  0  0  0  0
    1.3400    0.0256    3.8081 C   0  0  0  0  0  0  0  0  0  0  0  0
    0.1935    0.0087    4.6056 C   0  0  0  0  0  0  0  0  0  0  0  0
   -1.0558    0.0041    3.9617 C   0  0  0  0  0  0  0  0  0  0  0  0
   -2.5171   -0.0866    4.9343 Cl  0  0  0  0  0  0  0  0  0  0  0  0
    0.3565   -0.0188    6.1035 C   0  0  0  0  0  0  0  0  0  0  0  0
   -0.2576    1.0421    6.6908 F   0  0  0  0  0  0  0  0  0  0  0  0
   -0.1790   -1.1481    6.6406 F   0  0  0  0  0  0  0  0  0  0  0  0
   -3.2030   -1.6191    2.6026 H   0  0  0  0  0  0  0  0  0  0  0  0
   -3.2301    0.7098    2.5285 H   0  0  0  0  0  0  0  0  0  0  0  0
   -2.4668    0.5367    0.9272 H   0  0  0  0  0  0  0  0  0  0  0  0
   -1.2351   -1.9099   -0.4313 Au  0  0  0  0  0  0  0  0  0  0  0  0
    2.1545   -0.0392    1.8079 H   0  0  0  0  0  0  0  0  0  0  0  0
    2.3225    0.0289    4.2874 H   0  0  0  0  0  0  0  0  0  0  0  0
    1.4254    0.0128    6.3778 H   0  0  0  0  0  0  0  0  0  0  0  0
  1  2  1  0  0  0  0
  1 14  1  0  0  0  0
  2 15  1  0  0  0  0
  2  3  1  0  0  0  0
  3  9  2  0  0  0  0
  4  6  2  0  0  0  0
  4  3  1  0  0  0  0
  5  4  1  0  0  0  0
  6  7  1  0  0  0  0
  7 19  1  0  0  0  0
  7  8  2  0  0  0  0
  8 11  1  0  0  0  0
  9  8  1  0  0  0  0
  9 10  1  0  0  0  0
 11 20  1  0  0  0  0
 11 13  1  0  0  0  0
 11 12  1  0  0  0  0
 16  2  1  0  0  0  0
 17  5  1  0  0  0  0
 18  6  1  0  0  0  0
M  END
