313224892.xyz
 OpenBabel07262113463D
ClCc1ccc(c(c1Cl)OC(F)(F)F)S
 20 20  0  0  0  0  0  0  0  0999 V2000
   -0.1285    1.4323    6.8230 Cl  0  0  0  0  0  0  0  0  0  0  0  0
   -0.2041   -0.2360    6.0997 C   0  0  0  0  0  0  0  0  0  0  0  0
   -0.1177   -0.1838    4.6070 C   0  0  0  0  0  0  0  0  0  0  0  0
   -1.2817   -0.1982    3.8279 C   0  0  0  0  0  0  0  0  0  0  0  0
   -1.2317   -0.0951    2.4416 C   0  0  0  0  0  0  0  0  0  0  0  0
   -0.0000   -0.0000    1.7741 C   0  0  0  0  0  0  0  0  0  0  0  0
    1.1792    0.0000    2.5460 C   0  0  0  0  0  0  0  0  0  0  0  0
    1.1180   -0.0681    3.9433 C   0  0  0  0  0  0  0  0  0  0  0  0
    2.5991   -0.0099    4.8533 Cl  0  0  0  0  0  0  0  0  0  0  0  0
    2.4018    0.1819    1.9312 O   0  0  0  0  0  0  0  0  0  0  0  0
    3.1294   -0.8736    1.4668 C   0  0  0  0  0  0  0  0  0  0  0  0
    3.6384   -0.5482    0.2802 F   0  0  0  0  0  0  0  0  0  0  0  0
    2.3991   -1.9807    1.3418 F   0  0  0  0  0  0  0  0  0  0  0  0
    4.1508   -1.1444    2.2834 F   0  0  0  0  0  0  0  0  0  0  0  0
    0.0000    0.0000    0.0000 S   0  0  0  0  0  0  0  0  0  0  0  0
   -1.1563   -0.6727    6.4229 H   0  0  0  0  0  0  0  0  0  0  0  0
    0.6283   -0.7978    6.5381 H   0  0  0  0  0  0  0  0  0  0  0  0
   -2.2498   -0.2704    4.3289 H   0  0  0  0  0  0  0  0  0  0  0  0
   -2.1494   -0.0808    1.8520 H   0  0  0  0  0  0  0  0  0  0  0  0
    1.2464    1.8689   -0.5287 Au  0  0  0  0  0  0  0  0  0  0  0  0
  2 16  1  0  0  0  0
  2 17  1  0  0  0  0
  2  1  1  0  0  0  0
  3  2  1  0  0  0  0
  4 18  1  0  0  0  0
  4  3  2  0  0  0  0
  5  4  1  0  0  0  0
  6  5  2  0  0  0  0
  6  7  1  0  0  0  0
  7  8  2  0  0  0  0
  8  3  1  0  0  0  0
  8  9  1  0  0  0  0
 10  7  1  0  0  0  0
 11 10  1  0  0  0  0
 11 14  1  0  0  0  0
 12 11  1  0  0  0  0
 13 11  1  0  0  0  0
 15  6  1  0  0  0  0
 19  5  1  0  0  0  0
 20 15  1  0  0  0  0
M  END
