313259683.xyz
 OpenBabel07262113473D
COc1c(S)ccc(c1Cl)C(=O)N
 21 21  0  0  0  0  0  0  0  0999 V2000
   -2.9941   -1.2178    1.5316 C   0  0  0  0  0  0  0  0  0  0  0  0
   -2.4009    0.0181    1.9283 O   0  0  0  0  0  0  0  0  0  0  0  0
   -1.1898   -0.0756    2.5353 C   0  0  0  0  0  0  0  0  0  0  0  0
    0.0000   -0.0000    1.7759 C   0  0  0  0  0  0  0  0  0  0  0  0
    0.0000    0.0000    0.0000 S   0  0  0  0  0  0  0  0  0  0  0  0
    1.2368    0.0000    2.4398 C   0  0  0  0  0  0  0  0  0  0  0  0
    1.2925   -0.1081    3.8261 C   0  0  0  0  0  0  0  0  0  0  0  0
    0.1244   -0.1999    4.5973 C   0  0  0  0  0  0  0  0  0  0  0  0
   -1.1144   -0.1745    3.9355 C   0  0  0  0  0  0  0  0  0  0  0  0
   -2.6128   -0.2194    4.8223 Cl  0  0  0  0  0  0  0  0  0  0  0  0
    0.2300   -0.3836    6.0930 C   0  0  0  0  0  0  0  0  0  0  0  0
   -0.3540   -1.2619    6.6944 O   0  0  0  0  0  0  0  0  0  0  0  0
    1.0930    0.4885    6.6993 N   0  0  0  0  0  0  0  0  0  0  0  0
   -2.3362   -1.7595    0.8334 H   0  0  0  0  0  0  0  0  0  0  0  0
   -3.2099   -1.8437    2.4127 H   0  0  0  0  0  0  0  0  0  0  0  0
   -3.9341   -0.9650    1.0239 H   0  0  0  0  0  0  0  0  0  0  0  0
   -1.5189    1.6625   -0.5095 Au  0  0  0  0  0  0  0  0  0  0  0  0
    2.1527    0.0796    1.8518 H   0  0  0  0  0  0  0  0  0  0  0  0
    2.2613   -0.1326    4.3293 H   0  0  0  0  0  0  0  0  0  0  0  0
    1.4151    1.3237    6.2286 H   0  0  0  0  0  0  0  0  0  0  0  0
    1.1830    0.4314    7.7075 H   0  0  0  0  0  0  0  0  0  0  0  0
  1  2  1  0  0  0  0
  1 15  1  0  0  0  0
  2  3  1  0  0  0  0
  3  9  2  0  0  0  0
  4  6  2  0  0  0  0
  4  3  1  0  0  0  0
  5  4  1  0  0  0  0
  6  7  1  0  0  0  0
  7 19  1  0  0  0  0
  7  8  2  0  0  0  0
  8 11  1  0  0  0  0
  9  8  1  0  0  0  0
  9 10  1  0  0  0  0
 11 12  2  0  0  0  0
 11 13  1  0  0  0  0
 13 21  1  0  0  0  0
 14  1  1  0  0  0  0
 16  1  1  0  0  0  0
 17  5  1  0  0  0  0
 18  6  1  0  0  0  0
 20 13  1  0  0  0  0
M  END
