313254821.xyz
 OpenBabel07262113473D
CC(=O)c1cc(S)c(cc1OC(F)(F)F)Cl
 22 22  0  0  0  0  0  0  0  0999 V2000
   -3.9304   -0.0280    3.6283 C   0  0  0  0  0  0  0  0  0  0  0  0
   -2.7142   -0.3841    4.4647 C   0  0  0  0  0  0  0  0  0  0  0  0
   -2.8391   -0.7816    5.6026 O   0  0  0  0  0  0  0  0  0  0  0  0
   -1.3588   -0.2337    3.8213 C   0  0  0  0  0  0  0  0  0  0  0  0
   -1.2365   -0.0963    2.4323 C   0  0  0  0  0  0  0  0  0  0  0  0
    0.0000    0.0000    1.7734 C   0  0  0  0  0  0  0  0  0  0  0  0
    0.0000    0.0000    0.0000 S   0  0  0  0  0  0  0  0  0  0  0  0
    1.1649    0.0000    2.5710 C   0  0  0  0  0  0  0  0  0  0  0  0
    1.0764   -0.0902    3.9607 C   0  0  0  0  0  0  0  0  0  0  0  0
   -0.1670   -0.2220    4.5741 C   0  0  0  0  0  0  0  0  0  0  0  0
   -0.2125   -0.2464    5.9545 O   0  0  0  0  0  0  0  0  0  0  0  0
    0.0886   -1.4001    6.6003 C   0  0  0  0  0  0  0  0  0  0  0  0
   -0.4957   -2.4645    6.0506 F   0  0  0  0  0  0  0  0  0  0  0  0
    1.4181   -1.6332    6.5845 F   0  0  0  0  0  0  0  0  0  0  0  0
   -0.2946   -1.2791    7.8583 F   0  0  0  0  0  0  0  0  0  0  0  0
    2.7411    0.1574    1.8639 Cl  0  0  0  0  0  0  0  0  0  0  0  0
   -3.8394    0.9746    3.1828 H   0  0  0  0  0  0  0  0  0  0  0  0
   -4.0591   -0.7465    2.8027 H   0  0  0  0  0  0  0  0  0  0  0  0
   -4.8155   -0.0722    4.2747 H   0  0  0  0  0  0  0  0  0  0  0  0
   -2.1297   -0.0749    1.8092 H   0  0  0  0  0  0  0  0  0  0  0  0
    0.9506    2.0390   -0.5175 Au  0  0  0  0  0  0  0  0  0  0  0  0
    1.9761   -0.0631    4.5735 H   0  0  0  0  0  0  0  0  0  0  0  0
  1 19  1  0  0  0  0
  1  2  1  0  0  0  0
  2  3  2  0  0  0  0
  4  2  1  0  0  0  0
  4 10  2  0  0  0  0
  5  4  1  0  0  0  0
  6  5  2  0  0  0  0
  6  8  1  0  0  0  0
  7  6  1  0  0  0  0
  8  9  2  0  0  0  0
  9 22  1  0  0  0  0
  9 10  1  0  0  0  0
 10 11  1  0  0  0  0
 11 12  1  0  0  0  0
 12 15  1  0  0  0  0
 13 12  1  0  0  0  0
 14 12  1  0  0  0  0
 16  8  1  0  0  0  0
 17  1  1  0  0  0  0
 18  1  1  0  0  0  0
 20  5  1  0  0  0  0
 21  7  1  0  0  0  0
M  END
