313273062.xyz
 OpenBabel07262113473D
OCc1cc(F)cc(c1OC)S
 21 21  0  0  0  0  0  0  0  0999 V2000
    2.4004   -0.0612    6.0377 O   0  0  0  0  0  0  0  0  0  0  0  0
    2.5386   -0.1946    4.6427 C   0  0  0  0  0  0  0  0  0  0  0  0
    1.2211   -0.1461    3.8922 C   0  0  0  0  0  0  0  0  0  0  0  0
    0.0128   -0.2797    4.5772 C   0  0  0  0  0  0  0  0  0  0  0  0
   -1.1851   -0.2570    3.8643 C   0  0  0  0  0  0  0  0  0  0  0  0
   -2.3418   -0.3791    4.5330 F   0  0  0  0  0  0  0  0  0  0  0  0
   -1.2110   -0.1326    2.4842 C   0  0  0  0  0  0  0  0  0  0  0  0
   -0.0000    0.0000    1.7801 C   0  0  0  0  0  0  0  0  0  0  0  0
    1.2208    0.0000    2.4908 C   0  0  0  0  0  0  0  0  0  0  0  0
    2.4339    0.0701    1.8664 O   0  0  0  0  0  0  0  0  0  0  0  0
    2.8300    1.3471    1.3836 C   0  0  0  0  0  0  0  0  0  0  0  0
    0.0000    0.0000    0.0000 S   0  0  0  0  0  0  0  0  0  0  0  0
    2.0796    0.8317    6.2229 H   0  0  0  0  0  0  0  0  0  0  0  0
    3.0130   -1.1746    4.4671 H   0  0  0  0  0  0  0  0  0  0  0  0
    3.2325    0.5542    4.2186 H   0  0  0  0  0  0  0  0  0  0  0  0
    0.0082   -0.4063    5.6602 H   0  0  0  0  0  0  0  0  0  0  0  0
   -2.1615   -0.1463    1.9507 H   0  0  0  0  0  0  0  0  0  0  0  0
    3.8384    1.2271    0.9653 H   0  0  0  0  0  0  0  0  0  0  0  0
    2.1530    1.7093    0.5947 H   0  0  0  0  0  0  0  0  0  0  0  0
    2.8635    2.0876    2.2033 H   0  0  0  0  0  0  0  0  0  0  0  0
   -0.7825    2.1029   -0.5287 Au  0  0  0  0  0  0  0  0  0  0  0  0
  1 13  1  0  0  0  0
  2  1  1  0  0  0  0
  3  4  1  0  0  0  0
  3  2  1  0  0  0  0
  4 16  1  0  0  0  0
  5  6  1  0  0  0  0
  5  4  2  0  0  0  0
  7  5  1  0  0  0  0
  8  7  2  0  0  0  0
  8  9  1  0  0  0  0
  9  3  2  0  0  0  0
 10  9  1  0  0  0  0
 11 10  1  0  0  0  0
 11 20  1  0  0  0  0
 12  8  1  0  0  0  0
 14  2  1  0  0  0  0
 15  2  1  0  0  0  0
 17  7  1  0  0  0  0
 18 11  1  0  0  0  0
 19 11  1  0  0  0  0
 21 12  1  0  0  0  0
M  END
