313206922.xyz
 OpenBabel07262113463D
NC(=O)c1c(S)ccc(c1F)Cl
 17 17  0  0  0  0  0  0  0  0999 V2000
    3.2530    1.0098    1.8575 N   0  0  0  0  0  0  0  0  0  0  0  0
    2.5616   -0.1469    1.9645 C   0  0  0  0  0  0  0  0  0  0  0  0
    3.0050   -1.2298    1.6140 O   0  0  0  0  0  0  0  0  0  0  0  0
    1.1778   -0.0000    2.5636 C   0  0  0  0  0  0  0  0  0  0  0  0
   -0.0000   -0.0000    1.7826 C   0  0  0  0  0  0  0  0  0  0  0  0
    0.0000    0.0000    0.0000 S   0  0  0  0  0  0  0  0  0  0  0  0
   -1.2429    0.0918    2.4328 C   0  0  0  0  0  0  0  0  0  0  0  0
   -1.3277    0.1895    3.8204 C   0  0  0  0  0  0  0  0  0  0  0  0
   -0.1660    0.1784    4.5934 C   0  0  0  0  0  0  0  0  0  0  0  0
    1.0738    0.0784    3.9515 C   0  0  0  0  0  0  0  0  0  0  0  0
    2.1927    0.0724    4.6839 F   0  0  0  0  0  0  0  0  0  0  0  0
   -0.2307    0.2846    6.3246 Cl  0  0  0  0  0  0  0  0  0  0  0  0
    4.1830    0.9873    1.4541 H   0  0  0  0  0  0  0  0  0  0  0  0
    2.8520    1.8944    2.1387 H   0  0  0  0  0  0  0  0  0  0  0  0
    1.1836   -1.9392   -0.4499 Au  0  0  0  0  0  0  0  0  0  0  0  0
   -2.1523    0.0794    1.8304 H   0  0  0  0  0  0  0  0  0  0  0  0
   -2.2957    0.2614    4.3183 H   0  0  0  0  0  0  0  0  0  0  0  0
  1  2  1  0  0  0  0
  1 14  1  0  0  0  0
  2  4  1  0  0  0  0
  3  2  2  0  0  0  0
  4 10  2  0  0  0  0
  5  7  2  0  0  0  0
  5  4  1  0  0  0  0
  6  5  1  0  0  0  0
  7  8  1  0  0  0  0
  8 17  1  0  0  0  0
  8  9  2  0  0  0  0
  9 12  1  0  0  0  0
 10  9  1  0  0  0  0
 10 11  1  0  0  0  0
 13  1  1  0  0  0  0
 15  6  1  0  0  0  0
 16  7  1  0  0  0  0
M  END
