313228212.xyz
 OpenBabel07262113473D
NC(=O)c1c(S)ccc(c1Cl)C(F)(F)F
 20 20  0  0  0  0  0  0  0  0999 V2000
    3.1672    1.0523    1.7177 N   0  0  0  0  0  0  0  0  0  0  0  0
    2.5455   -0.1245    1.9455 C   0  0  0  0  0  0  0  0  0  0  0  0
    3.0278   -1.2092    1.6529 O   0  0  0  0  0  0  0  0  0  0  0  0
    1.1718    0.0000    2.5758 C   0  0  0  0  0  0  0  0  0  0  0  0
   -0.0000    0.0000    1.7832 C   0  0  0  0  0  0  0  0  0  0  0  0
    0.0000    0.0000    0.0000 S   0  0  0  0  0  0  0  0  0  0  0  0
   -1.2482    0.0880    2.4197 C   0  0  0  0  0  0  0  0  0  0  0  0
   -1.3375    0.1782    3.8051 C   0  0  0  0  0  0  0  0  0  0  0  0
   -0.1902    0.1637    4.6028 C   0  0  0  0  0  0  0  0  0  0  0  0
    1.0618    0.0681    3.9698 C   0  0  0  0  0  0  0  0  0  0  0  0
    2.5309    0.0535    4.9181 Cl  0  0  0  0  0  0  0  0  0  0  0  0
   -0.3230    0.2509    6.1071 C   0  0  0  0  0  0  0  0  0  0  0  0
   -1.6141    0.3333    6.4757 F   0  0  0  0  0  0  0  0  0  0  0  0
    0.2964    1.3357    6.6015 F   0  0  0  0  0  0  0  0  0  0  0  0
    0.1943   -0.8237    6.7215 F   0  0  0  0  0  0  0  0  0  0  0  0
    4.0838    1.0448    1.2846 H   0  0  0  0  0  0  0  0  0  0  0  0
    2.7436    1.9338    1.9746 H   0  0  0  0  0  0  0  0  0  0  0  0
    1.3010   -1.8628   -0.4549 Au  0  0  0  0  0  0  0  0  0  0  0  0
   -2.1528    0.0752    1.8103 H   0  0  0  0  0  0  0  0  0  0  0  0
   -2.3141    0.2463    4.2843 H   0  0  0  0  0  0  0  0  0  0  0  0
  1  2  1  0  0  0  0
  1 17  1  0  0  0  0
  2  4  1  0  0  0  0
  3  2  2  0  0  0  0
  4 10  2  0  0  0  0
  5  7  2  0  0  0  0
  5  4  1  0  0  0  0
  6  5  1  0  0  0  0
  7  8  1  0  0  0  0
  8 20  1  0  0  0  0
  8  9  2  0  0  0  0
  9 12  1  0  0  0  0
 10  9  1  0  0  0  0
 10 11  1  0  0  0  0
 12 13  1  0  0  0  0
 12 14  1  0  0  0  0
 12 15  1  0  0  0  0
 16  1  1  0  0  0  0
 18  6  1  0  0  0  0
 19  7  1  0  0  0  0
M  END
