313202615.xyz
 OpenBabel07262113463D
[O-][N+](=O)c1c(Cl)ccc(c1S)C(=O)C
 20 20  0  0  0  0  0  0  0  0999 V2000
    2.9449    1.1393    1.4517 O   0  0  0  0  0  0  0  0  0  0  0  0
    2.4937    0.0351    1.7079 N   0  0  0  0  0  0  0  0  0  0  0  0
    2.9834   -1.0297    1.4018 O   0  0  0  0  0  0  0  0  0  0  0  0
    1.2303   -0.0000    2.4740 C   0  0  0  0  0  0  0  0  0  0  0  0
    1.3142    0.0155    3.8659 C   0  0  0  0  0  0  0  0  0  0  0  0
    2.8596    0.0242    4.6566 Cl  0  0  0  0  0  0  0  0  0  0  0  0
    0.1382    0.0216    4.6197 C   0  0  0  0  0  0  0  0  0  0  0  0
   -1.0854    0.0163    3.9627 C   0  0  0  0  0  0  0  0  0  0  0  0
   -1.1857   -0.0133    2.5610 C   0  0  0  0  0  0  0  0  0  0  0  0
   -0.0000   -0.0000    1.7874 C   0  0  0  0  0  0  0  0  0  0  0  0
    0.0000    0.0000    0.0000 S   0  0  0  0  0  0  0  0  0  0  0  0
   -2.6112   -0.0280    2.0368 C   0  0  0  0  0  0  0  0  0  0  0  0
   -3.4754    0.4832    2.7196 O   0  0  0  0  0  0  0  0  0  0  0  0
   -2.9695   -0.7363    0.7508 C   0  0  0  0  0  0  0  0  0  0  0  0
    0.1986    0.0336    5.7083 H   0  0  0  0  0  0  0  0  0  0  0  0
   -2.0152    0.0412    4.5324 H   0  0  0  0  0  0  0  0  0  0  0  0
    0.7395    2.1476   -0.4375 Au  0  0  0  0  0  0  0  0  0  0  0  0
   -2.8265   -0.0552   -0.1010 H   0  0  0  0  0  0  0  0  0  0  0  0
   -4.0302   -1.0166    0.8090 H   0  0  0  0  0  0  0  0  0  0  0  0
   -2.3422   -1.6196    0.5659 H   0  0  0  0  0  0  0  0  0  0  0  0
  1  2  2  0  0  0  0
  2  4  1  0  0  0  0
  3  2  2  0  0  0  0
  4  5  1  0  0  0  0
  5  7  2  0  0  0  0
  5  6  1  0  0  0  0
  7 15  1  0  0  0  0
  8 16  1  0  0  0  0
  8  7  1  0  0  0  0
  9  8  2  0  0  0  0
 10  4  2  0  0  0  0
 10  9  1  0  0  0  0
 11 10  1  0  0  0  0
 12  9  1  0  0  0  0
 12 13  2  0  0  0  0
 14 19  1  0  0  0  0
 14 12  1  0  0  0  0
 17 11  1  0  0  0  0
 18 14  1  0  0  0  0
 20 14  1  0  0  0  0
M  END
