313218315.xyz
 OpenBabel07262113463D
N#CCc1c(S)cc(cc1Cl)C#N
 18 18  0  0  0  0  0  0  0  0999 V2000
    3.6312   -2.2459    1.4169 N   0  0  0  0  0  0  0  0  0  0  0  0
    3.1624   -1.2030    1.5982 C   0  0  0  0  0  0  0  0  0  0  0  0
    2.5543    0.1101    1.8321 C   0  0  0  0  0  0  0  0  0  0  0  0
    1.2104    0.0000    2.5213 C   0  0  0  0  0  0  0  0  0  0  0  0
    0.0000   -0.0000    1.7884 C   0  0  0  0  0  0  0  0  0  0  0  0
    0.0000    0.0000    0.0000 S   0  0  0  0  0  0  0  0  0  0  0  0
   -1.2310   -0.0966    2.4505 C   0  0  0  0  0  0  0  0  0  0  0  0
   -1.2785   -0.1965    3.8476 C   0  0  0  0  0  0  0  0  0  0  0  0
   -0.0868   -0.2107    4.5890 C   0  0  0  0  0  0  0  0  0  0  0  0
    1.1323   -0.1189    3.9202 C   0  0  0  0  0  0  0  0  0  0  0  0
    2.5929   -0.1641    4.8759 Cl  0  0  0  0  0  0  0  0  0  0  0  0
   -2.5428   -0.2870    4.5218 C   0  0  0  0  0  0  0  0  0  0  0  0
   -3.5654   -0.3552    5.0659 N   0  0  0  0  0  0  0  0  0  0  0  0
    2.4315    0.6084    0.8603 H   0  0  0  0  0  0  0  0  0  0  0  0
    3.2445    0.7054    2.4482 H   0  0  0  0  0  0  0  0  0  0  0  0
   -0.1396    2.2483   -0.4870 Au  0  0  0  0  0  0  0  0  0  0  0  0
   -2.1524   -0.0951    1.8688 H   0  0  0  0  0  0  0  0  0  0  0  0
   -0.1075   -0.2972    5.6749 H   0  0  0  0  0  0  0  0  0  0  0  0
  1  2  3  0  0  0  0
  2  3  1  0  0  0  0
  3 15  1  0  0  0  0
  3  4  1  0  0  0  0
  4 10  2  0  0  0  0
  5  7  2  0  0  0  0
  5  4  1  0  0  0  0
  6  5  1  0  0  0  0
  7  8  1  0  0  0  0
  8 12  1  0  0  0  0
  8  9  2  0  0  0  0
  9 18  1  0  0  0  0
 10  9  1  0  0  0  0
 10 11  1  0  0  0  0
 12 13  3  0  0  0  0
 14  3  1  0  0  0  0
 16  6  1  0  0  0  0
 17  7  1  0  0  0  0
M  END
