313232742.xyz
 OpenBabel07262113473D
CCOc1cc(S)c(cc1Cl)C(=O)Cl
 22 22  0  0  0  0  0  0  0  0999 V2000
   -4.2736   -0.9983    3.3141 C   0  0  0  0  0  0  0  0  0  0  0  0
   -3.8397    0.4236    3.6321 C   0  0  0  0  0  0  0  0  0  0  0  0
   -2.6159    0.4663    4.3678 O   0  0  0  0  0  0  0  0  0  0  0  0
   -1.4373    0.3060    3.7539 C   0  0  0  0  0  0  0  0  0  0  0  0
   -1.2650    0.1549    2.3718 C   0  0  0  0  0  0  0  0  0  0  0  0
    0.0000    0.0000    1.7824 C   0  0  0  0  0  0  0  0  0  0  0  0
    0.0000    0.0000    0.0000 S   0  0  0  0  0  0  0  0  0  0  0  0
    1.1525    0.0000    2.6173 C   0  0  0  0  0  0  0  0  0  0  0  0
    0.9744    0.1523    4.0047 C   0  0  0  0  0  0  0  0  0  0  0  0
   -0.2821    0.2941    4.5700 C   0  0  0  0  0  0  0  0  0  0  0  0
   -0.4533    0.4622    6.2904 Cl  0  0  0  0  0  0  0  0  0  0  0  0
    2.5123   -0.1942    2.0660 C   0  0  0  0  0  0  0  0  0  0  0  0
    2.8183   -0.7020    1.0350 O   0  0  0  0  0  0  0  0  0  0  0  0
    3.8490    0.4509    3.1361 Cl  0  0  0  0  0  0  0  0  0  0  0  0
   -5.2580   -0.9873    2.8207 H   0  0  0  0  0  0  0  0  0  0  0  0
   -3.5629   -1.5056    2.6448 H   0  0  0  0  0  0  0  0  0  0  0  0
   -4.3553   -1.5877    4.2396 H   0  0  0  0  0  0  0  0  0  0  0  0
   -4.5698    0.9115    4.2931 H   0  0  0  0  0  0  0  0  0  0  0  0
   -3.7550    1.0412    2.7218 H   0  0  0  0  0  0  0  0  0  0  0  0
   -2.1273    0.1495    1.7084 H   0  0  0  0  0  0  0  0  0  0  0  0
    0.6508   -2.1486   -0.5373 Au  0  0  0  0  0  0  0  0  0  0  0  0
    1.8450    0.1571    4.6573 H   0  0  0  0  0  0  0  0  0  0  0  0
  1  2  1  0  0  0  0
  1 17  1  0  0  0  0
  2 18  1  0  0  0  0
  2  3  1  0  0  0  0
  4  3  1  0  0  0  0
  4 10  2  0  0  0  0
  5  4  1  0  0  0  0
  6  5  2  0  0  0  0
  6  8  1  0  0  0  0
  7  6  1  0  0  0  0
  8  9  2  0  0  0  0
  9 10  1  0  0  0  0
  9 22  1  0  0  0  0
 10 11  1  0  0  0  0
 12  8  1  0  0  0  0
 12 14  1  0  0  0  0
 13 12  2  0  0  0  0
 15  1  1  0  0  0  0
 16  1  1  0  0  0  0
 19  2  1  0  0  0  0
 20  5  1  0  0  0  0
 21  7  1  0  0  0  0
M  END
