313201340.xyz
 OpenBabel07262113463D
[O-][N+](=O)c1cc(C(=O)Cl)c(cc1S)Cl
 17 17  0  0  0  0  0  0  0  0999 V2000
    3.3633   -0.5661    2.5286 O   0  0  0  0  0  0  0  0  0  0  0  0
    2.5080    0.1807    2.0891 N   0  0  0  0  0  0  0  0  0  0  0  0
    2.7030    1.0802    1.2889 O   0  0  0  0  0  0  0  0  0  0  0  0
    1.1414    0.0000    2.6097 C   0  0  0  0  0  0  0  0  0  0  0  0
    1.0419   -0.1931    3.9818 C   0  0  0  0  0  0  0  0  0  0  0  0
   -0.2042   -0.3265    4.6076 C   0  0  0  0  0  0  0  0  0  0  0  0
   -0.1577   -0.4730    6.0945 C   0  0  0  0  0  0  0  0  0  0  0  0
    0.6507   -1.1196    6.6790 O   0  0  0  0  0  0  0  0  0  0  0  0
   -1.3305    0.5476    6.9809 Cl  0  0  0  0  0  0  0  0  0  0  0  0
   -1.3528   -0.3556    3.7927 C   0  0  0  0  0  0  0  0  0  0  0  0
   -1.2393   -0.2003    2.4098 C   0  0  0  0  0  0  0  0  0  0  0  0
    0.0000   -0.0000    1.7789 C   0  0  0  0  0  0  0  0  0  0  0  0
    0.0000    0.0000    0.0000 S   0  0  0  0  0  0  0  0  0  0  0  0
   -2.9357   -0.6585    4.4364 Cl  0  0  0  0  0  0  0  0  0  0  0  0
    1.9508   -0.2343    4.5821 H   0  0  0  0  0  0  0  0  0  0  0  0
   -2.1381   -0.2441    1.7952 H   0  0  0  0  0  0  0  0  0  0  0  0
    0.6084    2.1693   -0.5098 Au  0  0  0  0  0  0  0  0  0  0  0  0
  2  1  2  0  0  0  0
  2  4  1  0  0  0  0
  3  2  2  0  0  0  0
  4  5  2  0  0  0  0
  5 15  1  0  0  0  0
  5  6  1  0  0  0  0
  6  7  1  0  0  0  0
  7  8  2  0  0  0  0
  7  9  1  0  0  0  0
 10 14  1  0  0  0  0
 10  6  2  0  0  0  0
 11 10  1  0  0  0  0
 12 11  2  0  0  0  0
 12  4  1  0  0  0  0
 13 12  1  0  0  0  0
 16 11  1  0  0  0  0
 17 13  1  0  0  0  0
M  END
