313225926.xyz
 OpenBabel07262113473D
Sc1cc(OC(F)(F)F)c(c(c1)Cl)[N+](=O)[O-]
 19 19  0  0  0  0  0  0  0  0999 V2000
    0.0000    0.0000    0.0000 S   0  0  0  0  0  0  0  0  0  0  0  0
   -0.0000   -0.0000    1.7790 C   0  0  0  0  0  0  0  0  0  0  0  0
    1.2465   -0.0000    2.4252 C   0  0  0  0  0  0  0  0  0  0  0  0
    1.3009    0.1133    3.8121 C   0  0  0  0  0  0  0  0  0  0  0  0
    2.4996    0.0611    4.4935 O   0  0  0  0  0  0  0  0  0  0  0  0
    3.4024    1.0680    4.3231 C   0  0  0  0  0  0  0  0  0  0  0  0
    4.3270    0.9367    5.2557 F   0  0  0  0  0  0  0  0  0  0  0  0
    3.9972    0.9947    3.1191 F   0  0  0  0  0  0  0  0  0  0  0  0
    2.8369    2.2693    4.4137 F   0  0  0  0  0  0  0  0  0  0  0  0
    0.1279    0.1693    4.5715 C   0  0  0  0  0  0  0  0  0  0  0  0
   -1.1181    0.1389    3.9280 C   0  0  0  0  0  0  0  0  0  0  0  0
   -1.1792    0.0820    2.5370 C   0  0  0  0  0  0  0  0  0  0  0  0
   -2.5927    0.2428    4.8352 Cl  0  0  0  0  0  0  0  0  0  0  0  0
    0.2316    0.2505    6.0378 N   0  0  0  0  0  0  0  0  0  0  0  0
   -0.3005   -0.6374    6.6752 O   0  0  0  0  0  0  0  0  0  0  0  0
    0.8450    1.1986    6.4910 O   0  0  0  0  0  0  0  0  0  0  0  0
   -1.4602   -1.6910   -0.5464 Au  0  0  0  0  0  0  0  0  0  0  0  0
    2.1697   -0.1001    1.8568 H   0  0  0  0  0  0  0  0  0  0  0  0
   -2.1523    0.0985    2.0475 H   0  0  0  0  0  0  0  0  0  0  0  0
  1  2  1  0  0  0  0
  2  3  2  0  0  0  0
  2 12  1  0  0  0  0
  3  4  1  0  0  0  0
  4  5  1  0  0  0  0
  4 10  2  0  0  0  0
  6  9  1  0  0  0  0
  6  5  1  0  0  0  0
  6  7  1  0  0  0  0
  8  6  1  0  0  0  0
 10 14  1  0  0  0  0
 11 10  1  0  0  0  0
 11 13  1  0  0  0  0
 12 11  2  0  0  0  0
 14 16  2  0  0  0  0
 14 15  2  0  0  0  0
 17  1  1  0  0  0  0
 18  3  1  0  0  0  0
 19 12  1  0  0  0  0
M  END
