313203776.xyz
 OpenBabel07262113463D
FC(c1cc(Cl)c(cc1C(=O)N)S)F
 20 20  0  0  0  0  0  0  0  0999 V2000
    0.5976   -1.4817    6.5610 F   0  0  0  0  0  0  0  0  0  0  0  0
    0.1901   -0.2460    6.0994 C   0  0  0  0  0  0  0  0  0  0  0  0
    0.2064   -0.1945    4.5945 C   0  0  0  0  0  0  0  0  0  0  0  0
   -1.0418   -0.1579    3.9655 C   0  0  0  0  0  0  0  0  0  0  0  0
   -1.1548   -0.0879    2.5775 C   0  0  0  0  0  0  0  0  0  0  0  0
   -2.7512   -0.0657    1.8886 Cl  0  0  0  0  0  0  0  0  0  0  0  0
    0.0000   -0.0000    1.7727 C   0  0  0  0  0  0  0  0  0  0  0  0
    1.2444   -0.0000    2.4246 C   0  0  0  0  0  0  0  0  0  0  0  0
    1.3783   -0.1339    3.8089 C   0  0  0  0  0  0  0  0  0  0  0  0
    2.8123   -0.1130    4.3102 C   0  0  0  0  0  0  0  0  0  0  0  0
    3.6400    0.5903    3.7568 O   0  0  0  0  0  0  0  0  0  0  0  0
    3.1211   -0.9582    5.3256 N   0  0  0  0  0  0  0  0  0  0  0  0
    0.0000    0.0000    0.0000 S   0  0  0  0  0  0  0  0  0  0  0  0
    1.0214    0.6711    6.6485 F   0  0  0  0  0  0  0  0  0  0  0  0
   -0.8240   -0.0815    6.4976 H   0  0  0  0  0  0  0  0  0  0  0  0
   -1.9560   -0.1837    4.5612 H   0  0  0  0  0  0  0  0  0  0  0  0
    2.1522    0.1152    1.8314 H   0  0  0  0  0  0  0  0  0  0  0  0
    4.0638   -0.9123    5.6940 H   0  0  0  0  0  0  0  0  0  0  0  0
    2.4245   -1.5043    5.8150 H   0  0  0  0  0  0  0  0  0  0  0  0
   -1.2384    1.8762   -0.5235 Au  0  0  0  0  0  0  0  0  0  0  0  0
  2 15  1  0  0  0  0
  2  1  1  0  0  0  0
  2 14  1  0  0  0  0
  3  2  1  0  0  0  0
  4 16  1  0  0  0  0
  4  3  1  0  0  0  0
  5  4  2  0  0  0  0
  6  5  1  0  0  0  0
  7  8  2  0  0  0  0
  7  5  1  0  0  0  0
  8  9  1  0  0  0  0
  9 10  1  0  0  0  0
  9  3  2  0  0  0  0
 10 12  1  0  0  0  0
 11 10  2  0  0  0  0
 12 18  1  0  0  0  0
 12 19  1  0  0  0  0
 13  7  1  0  0  0  0
 17  8  1  0  0  0  0
 20 13  1  0  0  0  0
M  END
