313257249.xyz
 OpenBabel07262113473D
FC(Oc1ccc(c(c1OC(F)(F)F)S)Cl)F
 21 21  0  0  0  0  0  0  0  0999 V2000
    2.4096   -1.9075    5.5270 F   0  0  0  0  0  0  0  0  0  0  0  0
    3.0837   -1.0397    4.7353 C   0  0  0  0  0  0  0  0  0  0  0  0
    2.3710    0.1346    4.6188 O   0  0  0  0  0  0  0  0  0  0  0  0
    1.1895    0.0835    3.9159 C   0  0  0  0  0  0  0  0  0  0  0  0
   -0.0218    0.1873    4.5993 C   0  0  0  0  0  0  0  0  0  0  0  0
   -1.2178    0.2023    3.8873 C   0  0  0  0  0  0  0  0  0  0  0  0
   -1.2109    0.1023    2.4931 C   0  0  0  0  0  0  0  0  0  0  0  0
    0.0000   -0.0000    1.7722 C   0  0  0  0  0  0  0  0  0  0  0  0
    1.1953   -0.0000    2.5202 C   0  0  0  0  0  0  0  0  0  0  0  0
    2.4035   -0.1940    1.8731 O   0  0  0  0  0  0  0  0  0  0  0  0
    3.1860    0.8650    1.5082 C   0  0  0  0  0  0  0  0  0  0  0  0
    4.1738    1.0452    2.3912 F   0  0  0  0  0  0  0  0  0  0  0  0
    3.7381    0.5883    0.3313 F   0  0  0  0  0  0  0  0  0  0  0  0
    2.4963    1.9974    1.4187 F   0  0  0  0  0  0  0  0  0  0  0  0
    0.0000    0.0000    0.0000 S   0  0  0  0  0  0  0  0  0  0  0  0
   -2.7367    0.1085    1.6594 Cl  0  0  0  0  0  0  0  0  0  0  0  0
    4.2343   -0.7298    5.3332 F   0  0  0  0  0  0  0  0  0  0  0  0
    3.2744   -1.5262    3.7645 H   0  0  0  0  0  0  0  0  0  0  0  0
   -0.0037    0.2544    5.6874 H   0  0  0  0  0  0  0  0  0  0  0  0
   -2.1729    0.2822    4.4070 H   0  0  0  0  0  0  0  0  0  0  0  0
    1.1910   -1.9054   -0.5208 Au  0  0  0  0  0  0  0  0  0  0  0  0
  2 17  1  0  0  0  0
  2  1  1  0  0  0  0
  3  2  1  0  0  0  0
  4  5  1  0  0  0  0
  4  3  1  0  0  0  0
  5 19  1  0  0  0  0
  6 20  1  0  0  0  0
  6  5  2  0  0  0  0
  7  6  1  0  0  0  0
  8  7  2  0  0  0  0
  8  9  1  0  0  0  0
  9  4  2  0  0  0  0
 10  9  1  0  0  0  0
 11 10  1  0  0  0  0
 11 12  1  0  0  0  0
 13 11  1  0  0  0  0
 14 11  1  0  0  0  0
 15  8  1  0  0  0  0
 16  7  1  0  0  0  0
 18  2  1  0  0  0  0
 21 15  1  0  0  0  0
M  END
