313295593.xyz
 OpenBabel07262113473D
ClC(=O)c1cc(F)c(c(c1)S)OC(F)(F)F
 19 19  0  0  0  0  0  0  0  0999 V2000
    2.7511    0.2176    6.2101 Cl  0  0  0  0  0  0  0  0  0  0  0  0
    2.6949    0.1013    4.4081 C   0  0  0  0  0  0  0  0  0  0  0  0
    3.7070    0.0369    3.7875 O   0  0  0  0  0  0  0  0  0  0  0  0
    1.3236    0.0965    3.8240 C   0  0  0  0  0  0  0  0  0  0  0  0
    0.1588    0.1562    4.6001 C   0  0  0  0  0  0  0  0  0  0  0  0
   -1.0713    0.1346    3.9571 C   0  0  0  0  0  0  0  0  0  0  0  0
   -2.1904    0.1672    4.6776 F   0  0  0  0  0  0  0  0  0  0  0  0
   -1.1665    0.0855    2.5616 C   0  0  0  0  0  0  0  0  0  0  0  0
   -0.0000   -0.0000    1.7740 C   0  0  0  0  0  0  0  0  0  0  0  0
    1.2410    0.0000    2.4273 C   0  0  0  0  0  0  0  0  0  0  0  0
    0.0000    0.0000    0.0000 S   0  0  0  0  0  0  0  0  0  0  0  0
   -2.4144    0.0027    1.9825 O   0  0  0  0  0  0  0  0  0  0  0  0
   -3.1143    1.1449    1.7179 C   0  0  0  0  0  0  0  0  0  0  0  0
   -3.6438    1.6695    2.8257 F   0  0  0  0  0  0  0  0  0  0  0  0
   -4.0963    0.8167    0.8895 F   0  0  0  0  0  0  0  0  0  0  0  0
   -2.3535    2.0820    1.1538 F   0  0  0  0  0  0  0  0  0  0  0  0
    0.1966    0.2072    5.6868 H   0  0  0  0  0  0  0  0  0  0  0  0
    2.1584   -0.0797    1.8441 H   0  0  0  0  0  0  0  0  0  0  0  0
   -1.6027   -1.5617   -0.5597 Au  0  0  0  0  0  0  0  0  0  0  0  0
  2  1  1  0  0  0  0
  3  2  2  0  0  0  0
  4  2  1  0  0  0  0
  4  5  2  0  0  0  0
  5 17  1  0  0  0  0
  6  5  1  0  0  0  0
  6  7  1  0  0  0  0
  8  6  2  0  0  0  0
  9 10  2  0  0  0  0
  9  8  1  0  0  0  0
 10  4  1  0  0  0  0
 11  9  1  0  0  0  0
 12  8  1  0  0  0  0
 13 12  1  0  0  0  0
 13 14  1  0  0  0  0
 15 13  1  0  0  0  0
 16 13  1  0  0  0  0
 18 10  1  0  0  0  0
 19 11  1  0  0  0  0
M  END
