313290194.xyz
 OpenBabel07262113473D
ClC(=O)c1ccc(c(c1F)I)S
 15 15  0  0  0  0  0  0  0  0999 V2000
    2.4668   -0.0012    6.5563 Cl  0  0  0  0  0  0  0  0  0  0  0  0
    0.7071   -0.0022    6.0593 C   0  0  0  0  0  0  0  0  0  0  0  0
   -0.1246   -0.0033    6.9071 O   0  0  0  0  0  0  0  0  0  0  0  0
    0.5044   -0.0014    4.5944 C   0  0  0  0  0  0  0  0  0  0  0  0
    1.5577   -0.0008    3.6592 C   0  0  0  0  0  0  0  0  0  0  0  0
    1.3140   -0.0000    2.3021 C   0  0  0  0  0  0  0  0  0  0  0  0
   -0.0000   -0.0000    1.7598 C   0  0  0  0  0  0  0  0  0  0  0  0
   -1.0652   -0.0006    2.6953 C   0  0  0  0  0  0  0  0  0  0  0  0
   -0.8027   -0.0013    4.0730 C   0  0  0  0  0  0  0  0  0  0  0  0
   -1.8366   -0.0018    4.9060 F   0  0  0  0  0  0  0  0  0  0  0  0
   -3.1600   -0.0004    2.2445 I   0  0  0  0  0  0  0  0  0  0  0  0
    0.0000    0.0000    0.0000 S   0  0  0  0  0  0  0  0  0  0  0  0
    2.5823   -0.0007    4.0270 H   0  0  0  0  0  0  0  0  0  0  0  0
    2.1544    0.0008    1.6059 H   0  0  0  0  0  0  0  0  0  0  0  0
   -2.2601    0.0115   -0.5553 Au  0  0  0  0  0  0  0  0  0  0  0  0
  2  1  1  0  0  0  0
  2  3  2  0  0  0  0
  4  2  1  0  0  0  0
  5 13  1  0  0  0  0
  5  4  2  0  0  0  0
  6  5  1  0  0  0  0
  7  6  2  0  0  0  0
  7  8  1  0  0  0  0
  8  9  2  0  0  0  0
  9  4  1  0  0  0  0
  9 10  1  0  0  0  0
 11  8  1  0  0  0  0
 12  7  1  0  0  0  0
 14  6  1  0  0  0  0
 15 12  1  0  0  0  0
M  END
