313231203.xyz
 OpenBabel07262113473D
CCOc1ccc(c(c1S)Cl)C(=O)O
 23 23  0  0  0  0  0  0  0  0999 V2000
    4.6601    0.2731    1.2554 C   0  0  0  0  0  0  0  0  0  0  0  0
    3.6279    0.1334    2.3544 C   0  0  0  0  0  0  0  0  0  0  0  0
    2.3448    0.1164    1.7390 O   0  0  0  0  0  0  0  0  0  0  0  0
    1.2336    0.0000    2.4791 C   0  0  0  0  0  0  0  0  0  0  0  0
    1.2414   -0.0787    3.8782 C   0  0  0  0  0  0  0  0  0  0  0  0
    0.0393   -0.1695    4.5638 C   0  0  0  0  0  0  0  0  0  0  0  0
   -1.2032   -0.1815    3.9097 C   0  0  0  0  0  0  0  0  0  0  0  0
   -1.2089   -0.0735    2.4997 C   0  0  0  0  0  0  0  0  0  0  0  0
    0.0000    0.0000    1.7695 C   0  0  0  0  0  0  0  0  0  0  0  0
    0.0000    0.0000    0.0000 S   0  0  0  0  0  0  0  0  0  0  0  0
   -2.6949    0.0126    1.6049 Cl  0  0  0  0  0  0  0  0  0  0  0  0
   -2.3787   -0.2991    4.8275 C   0  0  0  0  0  0  0  0  0  0  0  0
   -2.2873   -0.1529    6.0274 O   0  0  0  0  0  0  0  0  0  0  0  0
   -3.5439   -0.6193    4.2459 O   0  0  0  0  0  0  0  0  0  0  0  0
    4.5069    1.2093    0.6975 H   0  0  0  0  0  0  0  0  0  0  0  0
    5.6732    0.2819    1.6852 H   0  0  0  0  0  0  0  0  0  0  0  0
    4.5845   -0.5649    0.5469 H   0  0  0  0  0  0  0  0  0  0  0  0
    3.7770   -0.8010    2.9249 H   0  0  0  0  0  0  0  0  0  0  0  0
    3.6870    0.9756    3.0672 H   0  0  0  0  0  0  0  0  0  0  0  0
    2.1776   -0.0755    4.4337 H   0  0  0  0  0  0  0  0  0  0  0  0
    0.0277   -0.2340    5.6523 H   0  0  0  0  0  0  0  0  0  0  0  0
    0.9656    2.0344   -0.5021 Au  0  0  0  0  0  0  0  0  0  0  0  0
   -4.1931   -0.6692    4.9685 H   0  0  0  0  0  0  0  0  0  0  0  0
  1 16  1  0  0  0  0
  1  2  1  0  0  0  0
  2 18  1  0  0  0  0
  2 19  1  0  0  0  0
  3  2  1  0  0  0  0
  3  4  1  0  0  0  0
  4  5  1  0  0  0  0
  5 20  1  0  0  0  0
  5  6  2  0  0  0  0
  6 21  1  0  0  0  0
  7  6  1  0  0  0  0
  7 12  1  0  0  0  0
  8  7  2  0  0  0  0
  9  4  2  0  0  0  0
  9  8  1  0  0  0  0
 10  9  1  0  0  0  0
 11  8  1  0  0  0  0
 12 13  2  0  0  0  0
 14 12  1  0  0  0  0
 14 23  1  0  0  0  0
 15  1  1  0  0  0  0
 17  1  1  0  0  0  0
 22 10  1  0  0  0  0
M  END
