313261735.xyz
 OpenBabel07262113473D
COc1c(Cl)ccc(c1C(=O)Cl)S
 19 19  0  0  0  0  0  0  0  0999 V2000
   -2.8094    1.0268    5.1854 C   0  0  0  0  0  0  0  0  0  0  0  0
   -2.3074   -0.1919    4.6345 O   0  0  0  0  0  0  0  0  0  0  0  0
   -1.1422   -0.1019    3.9443 C   0  0  0  0  0  0  0  0  0  0  0  0
    0.1092   -0.1171    4.5879 C   0  0  0  0  0  0  0  0  0  0  0  0
    0.1738   -0.2122    6.3238 Cl  0  0  0  0  0  0  0  0  0  0  0  0
    1.2885   -0.0755    3.8423 C   0  0  0  0  0  0  0  0  0  0  0  0
    1.2326   -0.0000    2.4518 C   0  0  0  0  0  0  0  0  0  0  0  0
    0.0000    0.0000    1.7796 C   0  0  0  0  0  0  0  0  0  0  0  0
   -1.1829   -0.0568    2.5434 C   0  0  0  0  0  0  0  0  0  0  0  0
   -2.5442   -0.0294    1.9195 C   0  0  0  0  0  0  0  0  0  0  0  0
   -3.2751    0.9089    1.8854 O   0  0  0  0  0  0  0  0  0  0  0  0
   -3.0207   -1.6059    1.2296 Cl  0  0  0  0  0  0  0  0  0  0  0  0
    0.0000    0.0000    0.0000 S   0  0  0  0  0  0  0  0  0  0  0  0
   -3.7314    0.7682    5.7217 H   0  0  0  0  0  0  0  0  0  0  0  0
   -3.0399    1.7447    4.3816 H   0  0  0  0  0  0  0  0  0  0  0  0
   -2.0887    1.4688    5.8918 H   0  0  0  0  0  0  0  0  0  0  0  0
    2.2475   -0.0901    4.3619 H   0  0  0  0  0  0  0  0  0  0  0  0
    2.1520    0.0618    1.8678 H   0  0  0  0  0  0  0  0  0  0  0  0
   -1.0802    1.9729   -0.5142 Au  0  0  0  0  0  0  0  0  0  0  0  0
  1 14  1  0  0  0  0
  1 16  1  0  0  0  0
  2  1  1  0  0  0  0
  3  4  1  0  0  0  0
  3  2  1  0  0  0  0
  4  5  1  0  0  0  0
  6 17  1  0  0  0  0
  6  4  2  0  0  0  0
  7  6  1  0  0  0  0
  8  7  2  0  0  0  0
  8  9  1  0  0  0  0
  9  3  2  0  0  0  0
 10  9  1  0  0  0  0
 11 10  2  0  0  0  0
 12 10  1  0  0  0  0
 13  8  1  0  0  0  0
 15  1  1  0  0  0  0
 18  7  1  0  0  0  0
 19 13  1  0  0  0  0
M  END
