313294126.xyz
 OpenBabel07262113473D
Cc1cc(cc(c1I)S)C(F)(F)F
 19 19  0  0  0  0  0  0  0  0999 V2000
    2.2728    0.0709    4.8983 C   0  0  0  0  0  0  0  0  0  0  0  0
    1.0651    0.0857    3.9995 C   0  0  0  0  0  0  0  0  0  0  0  0
   -0.2100    0.1945    4.5691 C   0  0  0  0  0  0  0  0  0  0  0  0
   -1.3617    0.2048    3.7794 C   0  0  0  0  0  0  0  0  0  0  0  0
   -1.2597    0.0936    2.3970 C   0  0  0  0  0  0  0  0  0  0  0  0
    0.0000   -0.0000    1.7764 C   0  0  0  0  0  0  0  0  0  0  0  0
    1.1538    0.0000    2.5944 C   0  0  0  0  0  0  0  0  0  0  0  0
    3.0804   -0.1661    1.7124 I   0  0  0  0  0  0  0  0  0  0  0  0
    0.0000    0.0000    0.0000 S   0  0  0  0  0  0  0  0  0  0  0  0
   -2.7102    0.3721    4.4320 C   0  0  0  0  0  0  0  0  0  0  0  0
   -3.7029   -0.1098    3.6670 F   0  0  0  0  0  0  0  0  0  0  0  0
   -2.9845    1.6693    4.6668 F   0  0  0  0  0  0  0  0  0  0  0  0
   -2.7674   -0.2592    5.6188 F   0  0  0  0  0  0  0  0  0  0  0  0
    2.9552    0.9028    4.6627 H   0  0  0  0  0  0  0  0  0  0  0  0
    2.8516   -0.8579    4.7735 H   0  0  0  0  0  0  0  0  0  0  0  0
    1.9737    0.1550    5.9521 H   0  0  0  0  0  0  0  0  0  0  0  0
   -0.3009    0.2624    5.6545 H   0  0  0  0  0  0  0  0  0  0  0  0
   -2.1540    0.0720    1.7749 H   0  0  0  0  0  0  0  0  0  0  0  0
    0.8403   -2.0962   -0.5033 Au  0  0  0  0  0  0  0  0  0  0  0  0
  1 16  1  0  0  0  0
  2  3  1  0  0  0  0
  2  1  1  0  0  0  0
  3 17  1  0  0  0  0
  4 10  1  0  0  0  0
  4  3  2  0  0  0  0
  5  4  1  0  0  0  0
  6  5  2  0  0  0  0
  6  7  1  0  0  0  0
  7  2  2  0  0  0  0
  8  7  1  0  0  0  0
  9  6  1  0  0  0  0
 10 12  1  0  0  0  0
 10 13  1  0  0  0  0
 11 10  1  0  0  0  0
 14  1  1  0  0  0  0
 15  1  1  0  0  0  0
 18  5  1  0  0  0  0
 19  9  1  0  0  0  0
M  END
