313201987.xyz
 OpenBabel07262113463D
FC(c1c(S)ccc(c1Cl)C(=O)Cl)F
 18 18  0  0  0  0  0  0  0  0999 V2000
    3.1170   -1.2118    1.9436 F   0  0  0  0  0  0  0  0  0  0  0  0
    2.5285    0.0199    1.8680 C   0  0  0  0  0  0  0  0  0  0  0  0
    1.1844    0.0000    2.5653 C   0  0  0  0  0  0  0  0  0  0  0  0
    0.0000   -0.0000    1.7906 C   0  0  0  0  0  0  0  0  0  0  0  0
    0.0000    0.0000    0.0000 S   0  0  0  0  0  0  0  0  0  0  0  0
   -1.2523    0.0598    2.4203 C   0  0  0  0  0  0  0  0  0  0  0  0
   -1.3389    0.0792    3.8061 C   0  0  0  0  0  0  0  0  0  0  0  0
   -0.1841   -0.0299    4.5912 C   0  0  0  0  0  0  0  0  0  0  0  0
    1.0750   -0.0591    3.9655 C   0  0  0  0  0  0  0  0  0  0  0  0
    2.5006   -0.1187    4.9613 Cl  0  0  0  0  0  0  0  0  0  0  0  0
   -0.3980   -0.0850    6.0706 C   0  0  0  0  0  0  0  0  0  0  0  0
   -1.0167    0.7091    6.7003 O   0  0  0  0  0  0  0  0  0  0  0  0
    0.2228   -1.5882    6.8316 Cl  0  0  0  0  0  0  0  0  0  0  0  0
    3.3749    0.9200    2.4221 F   0  0  0  0  0  0  0  0  0  0  0  0
    2.4051    0.2752    0.8070 H   0  0  0  0  0  0  0  0  0  0  0  0
    0.7577   -2.1309   -0.4644 Au  0  0  0  0  0  0  0  0  0  0  0  0
   -2.1541    0.0787    1.8073 H   0  0  0  0  0  0  0  0  0  0  0  0
   -2.3111    0.1386    4.2990 H   0  0  0  0  0  0  0  0  0  0  0  0
  2  1  1  0  0  0  0
  2 14  1  0  0  0  0
  2  3  1  0  0  0  0
  3  9  2  0  0  0  0
  4  6  2  0  0  0  0
  4  3  1  0  0  0  0
  5  4  1  0  0  0  0
  6  7  1  0  0  0  0
  7 18  1  0  0  0  0
  7  8  2  0  0  0  0
  8 11  1  0  0  0  0
  9  8  1  0  0  0  0
  9 10  1  0  0  0  0
 11 12  2  0  0  0  0
 11 13  1  0  0  0  0
 15  2  1  0  0  0  0
 16  5  1  0  0  0  0
 17  6  1  0  0  0  0
M  END
