313260970.xyz
 OpenBabel07262113473D
ClCc1c(OC)ccc(c1Cl)S
 20 20  0  0  0  0  0  0  0  0999 V2000
   -2.8225   -2.0413    5.0297 Cl  0  0  0  0  0  0  0  0  0  0  0  0
   -2.3443   -0.2966    4.8044 C   0  0  0  0  0  0  0  0  0  0  0  0
   -1.1173   -0.1761    3.9585 C   0  0  0  0  0  0  0  0  0  0  0  0
    0.1532   -0.2084    4.5840 C   0  0  0  0  0  0  0  0  0  0  0  0
    0.1394   -0.3192    5.9292 O   0  0  0  0  0  0  0  0  0  0  0  0
    1.3592   -0.3807    6.6376 C   0  0  0  0  0  0  0  0  0  0  0  0
    1.3246   -0.1144    3.8209 C   0  0  0  0  0  0  0  0  0  0  0  0
    1.2348    0.0000    2.4368 C   0  0  0  0  0  0  0  0  0  0  0  0
    0.0000    0.0000    1.7695 C   0  0  0  0  0  0  0  0  0  0  0  0
   -1.1699   -0.0970    2.5607 C   0  0  0  0  0  0  0  0  0  0  0  0
   -2.7282   -0.0833    1.7823 Cl  0  0  0  0  0  0  0  0  0  0  0  0
    0.0000    0.0000    0.0000 S   0  0  0  0  0  0  0  0  0  0  0  0
   -2.1679    0.1013    5.8080 H   0  0  0  0  0  0  0  0  0  0  0  0
   -3.2029    0.1982    4.3408 H   0  0  0  0  0  0  0  0  0  0  0  0
    1.9644   -1.2490    6.3249 H   0  0  0  0  0  0  0  0  0  0  0  0
    1.9539    0.5398    6.5043 H   0  0  0  0  0  0  0  0  0  0  0  0
    1.0964   -0.4890    7.6975 H   0  0  0  0  0  0  0  0  0  0  0  0
    2.3050   -0.1254    4.2942 H   0  0  0  0  0  0  0  0  0  0  0  0
    2.1431    0.0880    1.8382 H   0  0  0  0  0  0  0  0  0  0  0  0
   -0.8852    2.0664   -0.5315 Au  0  0  0  0  0  0  0  0  0  0  0  0
  2  1  1  0  0  0  0
  2 13  1  0  0  0  0
  3  4  1  0  0  0  0
  3  2  1  0  0  0  0
  4  5  1  0  0  0  0
  5  6  1  0  0  0  0
  6 17  1  0  0  0  0
  7 18  1  0  0  0  0
  7  4  2  0  0  0  0
  8  7  1  0  0  0  0
  9  8  2  0  0  0  0
  9 10  1  0  0  0  0
 10  3  2  0  0  0  0
 11 10  1  0  0  0  0
 12  9  1  0  0  0  0
 14  2  1  0  0  0  0
 15  6  1  0  0  0  0
 16  6  1  0  0  0  0
 19  8  1  0  0  0  0
 20 12  1  0  0  0  0
M  END
