313232230.xyz
 OpenBabel07262113473D
CCOc1cc(S)c(cc1C(=O)Cl)Cl
 22 22  0  0  0  0  0  0  0  0999 V2000
   -4.9123    0.5034    4.6630 C   0  0  0  0  0  0  0  0  0  0  0  0
   -3.7813    0.3428    3.6689 C   0  0  0  0  0  0  0  0  0  0  0  0
   -2.5702    0.2596    4.4116 O   0  0  0  0  0  0  0  0  0  0  0  0
   -1.3847    0.2196    3.7895 C   0  0  0  0  0  0  0  0  0  0  0  0
   -1.2541    0.0912    2.4007 C   0  0  0  0  0  0  0  0  0  0  0  0
    0.0000   -0.0000    1.7712 C   0  0  0  0  0  0  0  0  0  0  0  0
    0.0000    0.0000    0.0000 S   0  0  0  0  0  0  0  0  0  0  0  0
    1.1559   -0.0000    2.5826 C   0  0  0  0  0  0  0  0  0  0  0  0
    1.0355    0.0973    3.9639 C   0  0  0  0  0  0  0  0  0  0  0  0
   -0.2118    0.2478    4.5877 C   0  0  0  0  0  0  0  0  0  0  0  0
   -0.1625    0.3916    6.0662 C   0  0  0  0  0  0  0  0  0  0  0  0
    0.6910   -0.0643    6.7625 O   0  0  0  0  0  0  0  0  0  0  0  0
   -1.4167    1.4594    6.7928 Cl  0  0  0  0  0  0  0  0  0  0  0  0
    2.7567   -0.1382    1.9055 Cl  0  0  0  0  0  0  0  0  0  0  0  0
   -4.9520   -0.3587    5.3455 H   0  0  0  0  0  0  0  0  0  0  0  0
   -4.7658    1.4116    5.2659 H   0  0  0  0  0  0  0  0  0  0  0  0
   -5.8748    0.5784    4.1348 H   0  0  0  0  0  0  0  0  0  0  0  0
   -3.7320    1.2029    2.9769 H   0  0  0  0  0  0  0  0  0  0  0  0
   -3.9097   -0.5711    3.0606 H   0  0  0  0  0  0  0  0  0  0  0  0
   -2.1378    0.0376    1.7685 H   0  0  0  0  0  0  0  0  0  0  0  0
    1.2528   -1.8662   -0.5324 Au  0  0  0  0  0  0  0  0  0  0  0  0
    1.9304    0.0865    4.5861 H   0  0  0  0  0  0  0  0  0  0  0  0
  1 16  1  0  0  0  0
  1 15  1  0  0  0  0
  2  3  1  0  0  0  0
  2  1  1  0  0  0  0
  4  3  1  0  0  0  0
  4 10  2  0  0  0  0
  5  4  1  0  0  0  0
  6  5  2  0  0  0  0
  6  8  1  0  0  0  0
  7  6  1  0  0  0  0
  8  9  2  0  0  0  0
  9 22  1  0  0  0  0
  9 10  1  0  0  0  0
 10 11  1  0  0  0  0
 11 12  2  0  0  0  0
 11 13  1  0  0  0  0
 14  8  1  0  0  0  0
 17  1  1  0  0  0  0
 18  2  1  0  0  0  0
 19  2  1  0  0  0  0
 20  5  1  0  0  0  0
 21  7  1  0  0  0  0
M  END
