313200719.xyz
 OpenBabel07262113463D
N#CCc1cc(C(F)F)c(cc1Cl)S
 20 20  0  0  0  0  0  0  0  0999 V2000
    0.5445    2.1266    7.2180 N   0  0  0  0  0  0  0  0  0  0  0  0
    0.3274    1.0937    6.7422 C   0  0  0  0  0  0  0  0  0  0  0  0
    0.0421   -0.2073    6.1258 C   0  0  0  0  0  0  0  0  0  0  0  0
    0.0372   -0.1450    4.6119 C   0  0  0  0  0  0  0  0  0  0  0  0
   -1.1671   -0.1512    3.9041 C   0  0  0  0  0  0  0  0  0  0  0  0
   -1.2071   -0.0786    2.5098 C   0  0  0  0  0  0  0  0  0  0  0  0
   -2.5381   -0.1172    1.7974 C   0  0  0  0  0  0  0  0  0  0  0  0
   -2.7631   -1.3607    1.2905 F   0  0  0  0  0  0  0  0  0  0  0  0
   -3.5510    0.1541    2.6660 F   0  0  0  0  0  0  0  0  0  0  0  0
   -0.0000   -0.0000    1.7874 C   0  0  0  0  0  0  0  0  0  0  0  0
    1.2181    0.0000    2.4832 C   0  0  0  0  0  0  0  0  0  0  0  0
    1.2311   -0.0637    3.8740 C   0  0  0  0  0  0  0  0  0  0  0  0
    2.7667   -0.0473    4.7038 Cl  0  0  0  0  0  0  0  0  0  0  0  0
    0.0000    0.0000    0.0000 S   0  0  0  0  0  0  0  0  0  0  0  0
    0.8000   -0.9253    6.4775 H   0  0  0  0  0  0  0  0  0  0  0  0
   -0.9369   -0.5548    6.4888 H   0  0  0  0  0  0  0  0  0  0  0  0
   -2.1099   -0.2022    4.4509 H   0  0  0  0  0  0  0  0  0  0  0  0
   -2.5855    0.6031    0.9656 H   0  0  0  0  0  0  0  0  0  0  0  0
    2.1572    0.0532    1.9329 H   0  0  0  0  0  0  0  0  0  0  0  0
    0.4660    2.2042   -0.4811 Au  0  0  0  0  0  0  0  0  0  0  0  0
  2  1  3  0  0  0  0
  3 15  1  0  0  0  0
  3 16  1  0  0  0  0
  3  2  1  0  0  0  0
  4  3  1  0  0  0  0
  5 17  1  0  0  0  0
  5  4  1  0  0  0  0
  6  5  2  0  0  0  0
  7  6  1  0  0  0  0
  7  9  1  0  0  0  0
  8  7  1  0  0  0  0
 10 11  2  0  0  0  0
 10  6  1  0  0  0  0
 11 12  1  0  0  0  0
 12  4  2  0  0  0  0
 12 13  1  0  0  0  0
 14 10  1  0  0  0  0
 18  7  1  0  0  0  0
 19 11  1  0  0  0  0
 20 14  1  0  0  0  0
M  END
