313268427.xyz
 OpenBabel07262113473D
Cc1c(ccc(c1F)S)C(=O)OCC
 25 25  0  0  0  0  0  0  0  0999 V2000
   -2.5154   -0.2947    4.6409 C   0  0  0  0  0  0  0  0  0  0  0  0
   -1.1905   -0.2021    3.9303 C   0  0  0  0  0  0  0  0  0  0  0  0
    0.0678   -0.2154    4.5847 C   0  0  0  0  0  0  0  0  0  0  0  0
    1.2554   -0.1192    3.8387 C   0  0  0  0  0  0  0  0  0  0  0  0
    1.2264    0.0000    2.4556 C   0  0  0  0  0  0  0  0  0  0  0  0
    0.0000   -0.0000    1.7720 C   0  0  0  0  0  0  0  0  0  0  0  0
   -1.1746   -0.1059    2.5344 C   0  0  0  0  0  0  0  0  0  0  0  0
   -2.3495   -0.0843    1.8848 F   0  0  0  0  0  0  0  0  0  0  0  0
    0.0000    0.0000    0.0000 S   0  0  0  0  0  0  0  0  0  0  0  0
    0.1461   -0.3239    6.0718 C   0  0  0  0  0  0  0  0  0  0  0  0
   -0.7997   -0.3955    6.8253 O   0  0  0  0  0  0  0  0  0  0  0  0
    1.4190   -0.3353    6.5137 O   0  0  0  0  0  0  0  0  0  0  0  0
    1.6042   -0.4361    7.9329 C   0  0  0  0  0  0  0  0  0  0  0  0
    3.0922   -0.4347    8.2079 C   0  0  0  0  0  0  0  0  0  0  0  0
   -2.5773   -1.2154    5.2378 H   0  0  0  0  0  0  0  0  0  0  0  0
   -2.6334    0.5301    5.3578 H   0  0  0  0  0  0  0  0  0  0  0  0
   -3.3417   -0.2720    3.9214 H   0  0  0  0  0  0  0  0  0  0  0  0
    2.2077   -0.1262    4.3661 H   0  0  0  0  0  0  0  0  0  0  0  0
    2.1496    0.0954    1.8818 H   0  0  0  0  0  0  0  0  0  0  0  0
   -1.3508    1.7868   -0.5392 Au  0  0  0  0  0  0  0  0  0  0  0  0
    1.0908    0.4080    8.4211 H   0  0  0  0  0  0  0  0  0  0  0  0
    1.1165   -1.3566    8.2922 H   0  0  0  0  0  0  0  0  0  0  0  0
    3.2750   -0.5116    9.2908 H   0  0  0  0  0  0  0  0  0  0  0  0
    3.5586    0.4935    7.8436 H   0  0  0  0  0  0  0  0  0  0  0  0
    3.5842   -1.2859    7.7128 H   0  0  0  0  0  0  0  0  0  0  0  0
  1 15  1  0  0  0  0
  1 16  1  0  0  0  0
  2  3  1  0  0  0  0
  2  1  1  0  0  0  0
  3 10  1  0  0  0  0
  4 18  1  0  0  0  0
  4  3  2  0  0  0  0
  5  4  1  0  0  0  0
  6  5  2  0  0  0  0
  6  7  1  0  0  0  0
  7  2  2  0  0  0  0
  8  7  1  0  0  0  0
  9  6  1  0  0  0  0
 10 12  1  0  0  0  0
 10 11  2  0  0  0  0
 12 13  1  0  0  0  0
 13 14  1  0  0  0  0
 13 22  1  0  0  0  0
 13 21  1  0  0  0  0
 14 23  1  0  0  0  0
 17  1  1  0  0  0  0
 19  5  1  0  0  0  0
 20  9  1  0  0  0  0
 24 14  1  0  0  0  0
 25 14  1  0  0  0  0
M  END
