313229024.xyz
 OpenBabel07262113473D
N#CCc1c(F)cc(cc1S)F
 17 17  0  0  0  0  0  0  0  0999 V2000
   -3.1466   -2.4007    0.7318 N   0  0  0  0  0  0  0  0  0  0  0  0
   -2.8893   -1.3804    1.2148 C   0  0  0  0  0  0  0  0  0  0  0  0
   -2.5691   -0.0969    1.8483 C   0  0  0  0  0  0  0  0  0  0  0  0
   -1.2089   -0.0889    2.5116 C   0  0  0  0  0  0  0  0  0  0  0  0
   -1.1160   -0.1766    3.9034 C   0  0  0  0  0  0  0  0  0  0  0  0
   -2.2448   -0.2606    4.6223 F   0  0  0  0  0  0  0  0  0  0  0  0
    0.0955   -0.1801    4.5890 C   0  0  0  0  0  0  0  0  0  0  0  0
    1.2626   -0.0941    3.8360 C   0  0  0  0  0  0  0  0  0  0  0  0
    1.2361    0.0000    2.4486 C   0  0  0  0  0  0  0  0  0  0  0  0
   -0.0000    0.0000    1.7843 C   0  0  0  0  0  0  0  0  0  0  0  0
    0.0000    0.0000    0.0000 S   0  0  0  0  0  0  0  0  0  0  0  0
    2.4391   -0.0965    4.4682 F   0  0  0  0  0  0  0  0  0  0  0  0
   -3.3460    0.1194    2.5955 H   0  0  0  0  0  0  0  0  0  0  0  0
   -2.6170    0.6871    1.0757 H   0  0  0  0  0  0  0  0  0  0  0  0
    0.1231   -0.2525    5.6761 H   0  0  0  0  0  0  0  0  0  0  0  0
    2.1678    0.0720    1.8881 H   0  0  0  0  0  0  0  0  0  0  0  0
   -0.4372    2.2088   -0.4924 Au  0  0  0  0  0  0  0  0  0  0  0  0
  1  2  3  0  0  0  0
  2  3  1  0  0  0  0
  3  4  1  0  0  0  0
  3 13  1  0  0  0  0
  4  5  2  0  0  0  0
  5  7  1  0  0  0  0
  5  6  1  0  0  0  0
  7 15  1  0  0  0  0
  8 12  1  0  0  0  0
  8  7  2  0  0  0  0
  9  8  1  0  0  0  0
 10  9  2  0  0  0  0
 10  4  1  0  0  0  0
 11 10  1  0  0  0  0
 14  3  1  0  0  0  0
 16  9  1  0  0  0  0
 17 11  1  0  0  0  0
M  END
