313202875.xyz
 OpenBabel07262113463D
Clc1cc([N+](=O)[O-])c(c(c1)C(=O)O)S
 18 18  0  0  0  0  0  0  0  0999 V2000
    0.2470   -0.1476    6.3472 Cl  0  0  0  0  0  0  0  0  0  0  0  0
    0.1591   -0.0858    4.6147 C   0  0  0  0  0  0  0  0  0  0  0  0
    1.3331   -0.0631    3.8638 C   0  0  0  0  0  0  0  0  0  0  0  0
    1.2315    0.0000    2.4792 C   0  0  0  0  0  0  0  0  0  0  0  0
    2.5150    0.0716    1.7504 N   0  0  0  0  0  0  0  0  0  0  0  0
    2.6120    0.9123    0.8765 O   0  0  0  0  0  0  0  0  0  0  0  0
    3.3909   -0.6984    2.1061 O   0  0  0  0  0  0  0  0  0  0  0  0
    0.0000   -0.0000    1.7929 C   0  0  0  0  0  0  0  0  0  0  0  0
   -1.1788   -0.0160    2.5818 C   0  0  0  0  0  0  0  0  0  0  0  0
   -1.0801   -0.0623    3.9786 C   0  0  0  0  0  0  0  0  0  0  0  0
   -2.6232   -0.0028    2.0822 C   0  0  0  0  0  0  0  0  0  0  0  0
   -3.5259   -0.2766    2.8316 O   0  0  0  0  0  0  0  0  0  0  0  0
   -2.8610    0.3595    0.8232 O   0  0  0  0  0  0  0  0  0  0  0  0
    0.0000    0.0000    0.0000 S   0  0  0  0  0  0  0  0  0  0  0  0
    2.3140   -0.0946    4.3364 H   0  0  0  0  0  0  0  0  0  0  0  0
   -2.0052   -0.0893    4.5536 H   0  0  0  0  0  0  0  0  0  0  0  0
   -2.0236    0.5076    0.3291 H   0  0  0  0  0  0  0  0  0  0  0  0
   -0.7681   -2.1371   -0.4533 Au  0  0  0  0  0  0  0  0  0  0  0  0
  2  1  1  0  0  0  0
  3 15  1  0  0  0  0
  3  2  2  0  0  0  0
  4  3  1  0  0  0  0
  5  7  2  0  0  0  0
  5  4  1  0  0  0  0
  6  5  2  0  0  0  0
  8  4  2  0  0  0  0
  8  9  1  0  0  0  0
  9 10  2  0  0  0  0
 10 16  1  0  0  0  0
 10  2  1  0  0  0  0
 11  9  1  0  0  0  0
 11 12  2  0  0  0  0
 13 11  1  0  0  0  0
 14  8  1  0  0  0  0
 17 13  1  0  0  0  0
 18 14  1  0  0  0  0
M  END
