313239292.xyz
 OpenBabel07262113473D
CCOc1cc(S)cc(c1C(=O)Cl)F
 22 22  0  0  0  0  0  0  0  0999 V2000
    4.7919    0.2482    4.9118 C   0  0  0  0  0  0  0  0  0  0  0  0
    3.7180    0.1399    3.8500 C   0  0  0  0  0  0  0  0  0  0  0  0
    2.4629    0.0667    4.5192 O   0  0  0  0  0  0  0  0  0  0  0  0
    1.3162    0.1038    3.8250 C   0  0  0  0  0  0  0  0  0  0  0  0
    1.2460    0.0000    2.4286 C   0  0  0  0  0  0  0  0  0  0  0  0
   -0.0000    0.0000    1.7818 C   0  0  0  0  0  0  0  0  0  0  0  0
    0.0000    0.0000    0.0000 S   0  0  0  0  0  0  0  0  0  0  0  0
   -1.1858    0.0864    2.5241 C   0  0  0  0  0  0  0  0  0  0  0  0
   -1.0976    0.1578    3.9076 C   0  0  0  0  0  0  0  0  0  0  0  0
    0.1279    0.1964    4.5879 C   0  0  0  0  0  0  0  0  0  0  0  0
    0.1256    0.3018    6.0709 C   0  0  0  0  0  0  0  0  0  0  0  0
   -0.4959   -0.3707    6.8253 O   0  0  0  0  0  0  0  0  0  0  0  0
    1.1174    1.6846    6.6856 Cl  0  0  0  0  0  0  0  0  0  0  0  0
   -2.2258    0.2479    4.6138 F   0  0  0  0  0  0  0  0  0  0  0  0
    4.6245    1.1399    5.5337 H   0  0  0  0  0  0  0  0  0  0  0  0
    4.7788   -0.6354    5.5672 H   0  0  0  0  0  0  0  0  0  0  0  0
    5.7845    0.3224    4.4424 H   0  0  0  0  0  0  0  0  0  0  0  0
    3.8603   -0.7611    3.2259 H   0  0  0  0  0  0  0  0  0  0  0  0
    3.7263    1.0186    3.1805 H   0  0  0  0  0  0  0  0  0  0  0  0
    2.1484   -0.1090    1.8312 H   0  0  0  0  0  0  0  0  0  0  0  0
   -1.2370   -1.8662   -0.5276 Au  0  0  0  0  0  0  0  0  0  0  0  0
   -2.1642    0.1042    2.0456 H   0  0  0  0  0  0  0  0  0  0  0  0
  1 15  1  0  0  0  0
  1 16  1  0  0  0  0
  2  3  1  0  0  0  0
  2  1  1  0  0  0  0
  4  3  1  0  0  0  0
  4 10  2  0  0  0  0
  5  4  1  0  0  0  0
  6  5  2  0  0  0  0
  6  8  1  0  0  0  0
  7  6  1  0  0  0  0
  8  9  2  0  0  0  0
  9 10  1  0  0  0  0
  9 14  1  0  0  0  0
 10 11  1  0  0  0  0
 11 13  1  0  0  0  0
 11 12  2  0  0  0  0
 17  1  1  0  0  0  0
 18  2  1  0  0  0  0
 19  2  1  0  0  0  0
 20  5  1  0  0  0  0
 21  7  1  0  0  0  0
 22  8  1  0  0  0  0
M  END
