313271779.xyz
 OpenBabel07262113473D
COc1c(S)ccc(c1F)C(=O)Cl
 19 19  0  0  0  0  0  0  0  0999 V2000
   -3.0456   -1.2813    1.7590 C   0  0  0  0  0  0  0  0  0  0  0  0
   -2.4105   -0.0219    1.9784 O   0  0  0  0  0  0  0  0  0  0  0  0
   -1.1751   -0.0800    2.5449 C   0  0  0  0  0  0  0  0  0  0  0  0
    0.0000    0.0000    1.7690 C   0  0  0  0  0  0  0  0  0  0  0  0
    0.0000    0.0000    0.0000 S   0  0  0  0  0  0  0  0  0  0  0  0
    1.2471    0.0000    2.4261 C   0  0  0  0  0  0  0  0  0  0  0  0
    1.3251   -0.1043    3.8061 C   0  0  0  0  0  0  0  0  0  0  0  0
    0.1667   -0.1899    4.6029 C   0  0  0  0  0  0  0  0  0  0  0  0
   -1.0766   -0.1673    3.9390 C   0  0  0  0  0  0  0  0  0  0  0  0
   -2.2178   -0.2517    4.6145 F   0  0  0  0  0  0  0  0  0  0  0  0
    0.1977   -0.2954    6.0792 C   0  0  0  0  0  0  0  0  0  0  0  0
   -0.7308   -0.3932    6.8132 O   0  0  0  0  0  0  0  0  0  0  0  0
    1.8807   -0.2668    6.7911 Cl  0  0  0  0  0  0  0  0  0  0  0  0
   -3.2505   -1.7873    2.7164 H   0  0  0  0  0  0  0  0  0  0  0  0
   -3.9943   -1.0708    1.2482 H   0  0  0  0  0  0  0  0  0  0  0  0
   -2.4216   -1.9263    1.1190 H   0  0  0  0  0  0  0  0  0  0  0  0
   -1.7662    1.3882   -0.5358 Au  0  0  0  0  0  0  0  0  0  0  0  0
    2.1572    0.0855    1.8306 H   0  0  0  0  0  0  0  0  0  0  0  0
    2.2958   -0.1091    4.2990 H   0  0  0  0  0  0  0  0  0  0  0  0
  1  2  1  0  0  0  0
  1 14  1  0  0  0  0
  2  3  1  0  0  0  0
  3  9  2  0  0  0  0
  4  6  2  0  0  0  0
  4  3  1  0  0  0  0
  5  4  1  0  0  0  0
  6  7  1  0  0  0  0
  7 19  1  0  0  0  0
  7  8  2  0  0  0  0
  8 11  1  0  0  0  0
  9  8  1  0  0  0  0
  9 10  1  0  0  0  0
 11 13  1  0  0  0  0
 11 12  2  0  0  0  0
 15  1  1  0  0  0  0
 16  1  1  0  0  0  0
 17  5  1  0  0  0  0
 18  6  1  0  0  0  0
M  END
