313213820.xyz
 OpenBabel07262113463D
COc1cc(Cl)c(c(c1)C#N)S
 18 18  0  0  0  0  0  0  0  0999 V2000
   -1.6595   -0.0010    6.6020 C   0  0  0  0  0  0  0  0  0  0  0  0
   -0.3931   -0.0004    5.9794 O   0  0  0  0  0  0  0  0  0  0  0  0
   -0.3280   -0.0002    4.6286 C   0  0  0  0  0  0  0  0  0  0  0  0
   -1.4428   -0.0000    3.7797 C   0  0  0  0  0  0  0  0  0  0  0  0
   -1.2675    0.0001    2.3963 C   0  0  0  0  0  0  0  0  0  0  0  0
   -2.7090    0.0003    1.4099 Cl  0  0  0  0  0  0  0  0  0  0  0  0
   -0.0000    0.0000    1.7726 C   0  0  0  0  0  0  0  0  0  0  0  0
    1.1144    0.0000    2.6647 C   0  0  0  0  0  0  0  0  0  0  0  0
    0.9464   -0.0002    4.0596 C   0  0  0  0  0  0  0  0  0  0  0  0
    2.4711   -0.0000    2.2078 C   0  0  0  0  0  0  0  0  0  0  0  0
    3.5945   -0.0001    1.8989 N   0  0  0  0  0  0  0  0  0  0  0  0
    0.0000    0.0000    0.0000 S   0  0  0  0  0  0  0  0  0  0  0  0
   -2.2448    0.8977    6.3374 H   0  0  0  0  0  0  0  0  0  0  0  0
   -1.4751   -0.0014    7.6839 H   0  0  0  0  0  0  0  0  0  0  0  0
   -2.2444   -0.8996    6.3366 H   0  0  0  0  0  0  0  0  0  0  0  0
   -2.4597    0.0001    4.1669 H   0  0  0  0  0  0  0  0  0  0  0  0
    1.8166   -0.0003    4.7156 H   0  0  0  0  0  0  0  0  0  0  0  0
    2.2281   -0.0035   -0.6062 Au  0  0  0  0  0  0  0  0  0  0  0  0
  1 14  1  0  0  0  0
  2  1  1  0  0  0  0
  3  2  1  0  0  0  0
  4 16  1  0  0  0  0
  4  3  2  0  0  0  0
  5  4  1  0  0  0  0
  6  5  1  0  0  0  0
  7  5  2  0  0  0  0
  7  8  1  0  0  0  0
  8  9  2  0  0  0  0
  9  3  1  0  0  0  0
  9 17  1  0  0  0  0
 10  8  1  0  0  0  0
 11 10  3  0  0  0  0
 12  7  1  0  0  0  0
 13  1  1  0  0  0  0
 15  1  1  0  0  0  0
 18 12  1  0  0  0  0
M  END
