313226369.xyz
 OpenBabel07262113473D
Clc1cc(S)c(c(c1)C(=O)Cl)F
 15 15  0  0  0  0  0  0  0  0999 V2000
   -2.7741    0.4026    4.6669 Cl  0  0  0  0  0  0  0  0  0  0  0  0
   -1.2454    0.2441    3.8439 C   0  0  0  0  0  0  0  0  0  0  0  0
   -1.2222    0.1062    2.4536 C   0  0  0  0  0  0  0  0  0  0  0  0
    0.0000    0.0000    1.7751 C   0  0  0  0  0  0  0  0  0  0  0  0
    0.0000    0.0000    0.0000 S   0  0  0  0  0  0  0  0  0  0  0  0
    1.1919    0.0000    2.5237 C   0  0  0  0  0  0  0  0  0  0  0  0
    1.1730    0.0855    3.9229 C   0  0  0  0  0  0  0  0  0  0  0  0
   -0.0638    0.2405    4.5771 C   0  0  0  0  0  0  0  0  0  0  0  0
    2.3697    0.0662    4.8145 C   0  0  0  0  0  0  0  0  0  0  0  0
    2.4079    0.5684    5.8933 O   0  0  0  0  0  0  0  0  0  0  0  0
    3.7630   -0.8885    4.2171 Cl  0  0  0  0  0  0  0  0  0  0  0  0
    2.3439   -0.0836    1.8679 F   0  0  0  0  0  0  0  0  0  0  0  0
   -2.1527    0.0860    1.8857 H   0  0  0  0  0  0  0  0  0  0  0  0
    1.1497   -1.9288   -0.5188 Au  0  0  0  0  0  0  0  0  0  0  0  0
   -0.0773    0.3411    5.6619 H   0  0  0  0  0  0  0  0  0  0  0  0
  2  8  2  0  0  0  0
  2  1  1  0  0  0  0
  3  2  1  0  0  0  0
  4  3  2  0  0  0  0
  4  6  1  0  0  0  0
  5  4  1  0  0  0  0
  6  7  2  0  0  0  0
  7  8  1  0  0  0  0
  7  9  1  0  0  0  0
  8 15  1  0  0  0  0
  9 10  2  0  0  0  0
 11  9  1  0  0  0  0
 12  6  1  0  0  0  0
 13  3  1  0  0  0  0
 14  5  1  0  0  0  0
M  END
