313289764.xyz
 OpenBabel07262113473D
COc1cc(S)c(cc1I)C(F)(F)F
 20 20  0  0  0  0  0  0  0  0999 V2000
    3.7453   -0.0052    3.7555 C   0  0  0  0  0  0  0  0  0  0  0  0
    2.5340   -0.0745    4.4812 O   0  0  0  0  0  0  0  0  0  0  0  0
    1.3631   -0.0719    3.8224 C   0  0  0  0  0  0  0  0  0  0  0  0
    1.2487    0.0000    2.4274 C   0  0  0  0  0  0  0  0  0  0  0  0
    0.0000    0.0000    1.7872 C   0  0  0  0  0  0  0  0  0  0  0  0
    0.0000    0.0000    0.0000 S   0  0  0  0  0  0  0  0  0  0  0  0
   -1.1737   -0.0811    2.5660 C   0  0  0  0  0  0  0  0  0  0  0  0
   -1.0626   -0.1487    3.9598 C   0  0  0  0  0  0  0  0  0  0  0  0
    0.1801   -0.1434    4.5865 C   0  0  0  0  0  0  0  0  0  0  0  0
    0.3002   -0.2464    6.6934 I   0  0  0  0  0  0  0  0  0  0  0  0
   -2.5570   -0.0955    1.9521 C   0  0  0  0  0  0  0  0  0  0  0  0
   -2.7299   -1.1190    1.1054 F   0  0  0  0  0  0  0  0  0  0  0  0
   -2.8225    1.0391    1.2749 F   0  0  0  0  0  0  0  0  0  0  0  0
   -3.5096   -0.2055    2.8989 F   0  0  0  0  0  0  0  0  0  0  0  0
    4.5504   -0.0233    4.5006 H   0  0  0  0  0  0  0  0  0  0  0  0
    3.8596   -0.8672    3.0759 H   0  0  0  0  0  0  0  0  0  0  0  0
    3.8133    0.9276    3.1696 H   0  0  0  0  0  0  0  0  0  0  0  0
    2.1370    0.0621    1.8015 H   0  0  0  0  0  0  0  0  0  0  0  0
   -0.2776    2.2371   -0.4826 Au  0  0  0  0  0  0  0  0  0  0  0  0
   -1.9669   -0.2098    4.5632 H   0  0  0  0  0  0  0  0  0  0  0  0
  1  2  1  0  0  0  0
  1 15  1  0  0  0  0
  3  2  1  0  0  0  0
  3  9  2  0  0  0  0
  4  3  1  0  0  0  0
  5  4  2  0  0  0  0
  5  7  1  0  0  0  0
  6  5  1  0  0  0  0
  7  8  2  0  0  0  0
  8 20  1  0  0  0  0
  8  9  1  0  0  0  0
  9 10  1  0  0  0  0
 11  7  1  0  0  0  0
 11 14  1  0  0  0  0
 12 11  1  0  0  0  0
 13 11  1  0  0  0  0
 16  1  1  0  0  0  0
 17  1  1  0  0  0  0
 18  4  1  0  0  0  0
 19  6  1  0  0  0  0
M  END
