313238780.xyz
 OpenBabel07262113473D
CCOc1cc(S)c(cc1C(=O)Cl)F
 22 22  0  0  0  0  0  0  0  0999 V2000
   -4.8022   -0.5455    4.8287 C   0  0  0  0  0  0  0  0  0  0  0  0
   -3.7078   -0.3744    3.7959 C   0  0  0  0  0  0  0  0  0  0  0  0
   -2.4741   -0.2730    4.4957 O   0  0  0  0  0  0  0  0  0  0  0  0
   -1.3097   -0.2281    3.8314 C   0  0  0  0  0  0  0  0  0  0  0  0
   -1.2323   -0.0975    2.4369 C   0  0  0  0  0  0  0  0  0  0  0  0
    0.0000    0.0000    1.7710 C   0  0  0  0  0  0  0  0  0  0  0  0
    0.0000    0.0000    0.0000 S   0  0  0  0  0  0  0  0  0  0  0  0
    1.1731    0.0000    2.5436 C   0  0  0  0  0  0  0  0  0  0  0  0
    1.1184   -0.0983    3.9215 C   0  0  0  0  0  0  0  0  0  0  0  0
   -0.1094   -0.2540    4.5881 C   0  0  0  0  0  0  0  0  0  0  0  0
   -0.0067   -0.3972    6.0635 C   0  0  0  0  0  0  0  0  0  0  0  0
    0.8785    0.0501    6.7255 O   0  0  0  0  0  0  0  0  0  0  0  0
   -1.2429   -1.4485    6.8425 Cl  0  0  0  0  0  0  0  0  0  0  0  0
    2.3676    0.1216    1.9482 F   0  0  0  0  0  0  0  0  0  0  0  0
   -4.6240   -1.4500    5.4285 H   0  0  0  0  0  0  0  0  0  0  0  0
   -4.8285    0.3180    5.5099 H   0  0  0  0  0  0  0  0  0  0  0  0
   -5.7815   -0.6335    4.3343 H   0  0  0  0  0  0  0  0  0  0  0  0
   -3.8702    0.5354    3.1890 H   0  0  0  0  0  0  0  0  0  0  0  0
   -3.6723   -1.2364    3.1052 H   0  0  0  0  0  0  0  0  0  0  0  0
   -2.1379   -0.0480    1.8356 H   0  0  0  0  0  0  0  0  0  0  0  0
    1.3482    1.7875   -0.5428 Au  0  0  0  0  0  0  0  0  0  0  0  0
    2.0436   -0.0847    4.4985 H   0  0  0  0  0  0  0  0  0  0  0  0
  1 15  1  0  0  0  0
  1 16  1  0  0  0  0
  2  3  1  0  0  0  0
  2  1  1  0  0  0  0
  4  3  1  0  0  0  0
  4 10  2  0  0  0  0
  5  4  1  0  0  0  0
  6  5  2  0  0  0  0
  6  8  1  0  0  0  0
  7  6  1  0  0  0  0
  8  9  2  0  0  0  0
  9 22  1  0  0  0  0
  9 10  1  0  0  0  0
 10 11  1  0  0  0  0
 11 12  2  0  0  0  0
 11 13  1  0  0  0  0
 14  8  1  0  0  0  0
 17  1  1  0  0  0  0
 18  2  1  0  0  0  0
 19  2  1  0  0  0  0
 20  5  1  0  0  0  0
 21  7  1  0  0  0  0
M  END
