313260972.xyz
 OpenBabel07262113473D
BrCC(=O)c1cc(OC)c(cc1Cl)S
 22 22  0  0  0  0  0  0  0  0999 V2000
    1.5610   -2.8449    6.3674 Br  0  0  0  0  0  0  0  0  0  0  0  0
    1.1894   -0.9967    6.9224 C   0  0  0  0  0  0  0  0  0  0  0  0
    0.0602   -0.4182    6.0877 C   0  0  0  0  0  0  0  0  0  0  0  0
   -0.9797   -0.1322    6.6487 O   0  0  0  0  0  0  0  0  0  0  0  0
    0.1701   -0.2640    4.5944 C   0  0  0  0  0  0  0  0  0  0  0  0
   -1.0723   -0.2073    3.9312 C   0  0  0  0  0  0  0  0  0  0  0  0
   -1.1826   -0.0944    2.5489 C   0  0  0  0  0  0  0  0  0  0  0  0
   -2.3593   -0.0443    1.8912 O   0  0  0  0  0  0  0  0  0  0  0  0
   -3.5648   -0.1519    2.6216 C   0  0  0  0  0  0  0  0  0  0  0  0
    0.0000    0.0000    1.7671 C   0  0  0  0  0  0  0  0  0  0  0  0
    1.2363   -0.0000    2.4234 C   0  0  0  0  0  0  0  0  0  0  0  0
    1.3318   -0.1456    3.8092 C   0  0  0  0  0  0  0  0  0  0  0  0
    2.9556   -0.0908    4.4675 Cl  0  0  0  0  0  0  0  0  0  0  0  0
    0.0000    0.0000    0.0000 S   0  0  0  0  0  0  0  0  0  0  0  0
    0.8548   -1.0327    7.9637 H   0  0  0  0  0  0  0  0  0  0  0  0
    2.1283   -0.4456    6.8172 H   0  0  0  0  0  0  0  0  0  0  0  0
   -1.9551   -0.2701    4.5644 H   0  0  0  0  0  0  0  0  0  0  0  0
   -3.6225   -1.1116    3.1627 H   0  0  0  0  0  0  0  0  0  0  0  0
   -3.6769    0.6746    3.3441 H   0  0  0  0  0  0  0  0  0  0  0  0
   -4.3760   -0.1019    1.8843 H   0  0  0  0  0  0  0  0  0  0  0  0
    2.1468    0.1167    1.8357 H   0  0  0  0  0  0  0  0  0  0  0  0
   -1.4959    1.6723   -0.5378 Au  0  0  0  0  0  0  0  0  0  0  0  0
  1  2  1  0  0  0  0
  2 15  1  0  0  0  0
  3  4  2  0  0  0  0
  3  2  1  0  0  0  0
  5  3  1  0  0  0  0
  6 17  1  0  0  0  0
  6  5  1  0  0  0  0
  7  6  2  0  0  0  0
  8  7  1  0  0  0  0
  8  9  1  0  0  0  0
  9 18  1  0  0  0  0
  9 19  1  0  0  0  0
 10 11  2  0  0  0  0
 10  7  1  0  0  0  0
 11 12  1  0  0  0  0
 12 13  1  0  0  0  0
 12  5  2  0  0  0  0
 14 10  1  0  0  0  0
 16  2  1  0  0  0  0
 20  9  1  0  0  0  0
 21 11  1  0  0  0  0
 22 14  1  0  0  0  0
M  END
