313238775.xyz
 OpenBabel07262113473D
CCOc1ccc(c(c1S)C(=O)C)F
 25 25  0  0  0  0  0  0  0  0999 V2000
   -4.2001    1.1398    0.7809 C   0  0  0  0  0  0  0  0  0  0  0  0
   -2.8731    1.3135    1.4845 C   0  0  0  0  0  0  0  0  0  0  0  0
   -2.4311    0.0250    1.9397 O   0  0  0  0  0  0  0  0  0  0  0  0
   -1.2007    0.0043    2.5333 C   0  0  0  0  0  0  0  0  0  0  0  0
   -1.1671   -0.0582    3.9277 C   0  0  0  0  0  0  0  0  0  0  0  0
    0.0409   -0.0876    4.6183 C   0  0  0  0  0  0  0  0  0  0  0  0
    1.2174   -0.0492    3.8837 C   0  0  0  0  0  0  0  0  0  0  0  0
    1.2448   -0.0000    2.4814 C   0  0  0  0  0  0  0  0  0  0  0  0
    0.0000    0.0000    1.7790 C   0  0  0  0  0  0  0  0  0  0  0  0
    0.0000    0.0000    0.0000 S   0  0  0  0  0  0  0  0  0  0  0  0
    2.5298    0.1163    1.7192 C   0  0  0  0  0  0  0  0  0  0  0  0
    2.5246    0.6297    0.6154 O   0  0  0  0  0  0  0  0  0  0  0  0
    3.8194   -0.4192    2.3042 C   0  0  0  0  0  0  0  0  0  0  0  0
    2.3731   -0.0354    4.5722 F   0  0  0  0  0  0  0  0  0  0  0  0
   -4.5937    2.1178    0.4643 H   0  0  0  0  0  0  0  0  0  0  0  0
   -4.0812    0.5086   -0.1146 H   0  0  0  0  0  0  0  0  0  0  0  0
   -4.9355    0.6624    1.4463 H   0  0  0  0  0  0  0  0  0  0  0  0
   -2.9691    1.9808    2.3605 H   0  0  0  0  0  0  0  0  0  0  0  0
   -2.1165    1.7436    0.8071 H   0  0  0  0  0  0  0  0  0  0  0  0
   -2.1202   -0.0699    4.4594 H   0  0  0  0  0  0  0  0  0  0  0  0
    0.0892   -0.1157    5.7074 H   0  0  0  0  0  0  0  0  0  0  0  0
   -1.7906   -1.3827   -0.5270 Au  0  0  0  0  0  0  0  0  0  0  0  0
    4.5419   -0.5272    1.4851 H   0  0  0  0  0  0  0  0  0  0  0  0
    3.6719   -1.3766    2.8237 H   0  0  0  0  0  0  0  0  0  0  0  0
    4.2183    0.2908    3.0446 H   0  0  0  0  0  0  0  0  0  0  0  0
  1 17  1  0  0  0  0
  1  2  1  0  0  0  0
  2  3  1  0  0  0  0
  2 18  1  0  0  0  0
  3  4  1  0  0  0  0
  4  5  2  0  0  0  0
  5 20  1  0  0  0  0
  5  6  1  0  0  0  0
  6 21  1  0  0  0  0
  7 14  1  0  0  0  0
  7  6  2  0  0  0  0
  8  7  1  0  0  0  0
  9  8  2  0  0  0  0
  9  4  1  0  0  0  0
 10  9  1  0  0  0  0
 11 13  1  0  0  0  0
 11  8  1  0  0  0  0
 12 11  2  0  0  0  0
 13 24  1  0  0  0  0
 13 25  1  0  0  0  0
 15  1  1  0  0  0  0
 16  1  1  0  0  0  0
 19  2  1  0  0  0  0
 22 10  1  0  0  0  0
 23 13  1  0  0  0  0
M  END
