313258151.xyz
 OpenBabel07262113473D
COc1c(S)ccc(c1Cl)C(=O)Cl
 19 19  0  0  0  0  0  0  0  0999 V2000
    3.0439   -1.0693    1.5608 C   0  0  0  0  0  0  0  0  0  0  0  0
    2.3942    0.1435    1.9450 O   0  0  0  0  0  0  0  0  0  0  0  0
    1.1836    0.0000    2.5441 C   0  0  0  0  0  0  0  0  0  0  0  0
    0.0000   -0.0000    1.7718 C   0  0  0  0  0  0  0  0  0  0  0  0
    0.0000    0.0000    0.0000 S   0  0  0  0  0  0  0  0  0  0  0  0
   -1.2412   -0.0714    2.4273 C   0  0  0  0  0  0  0  0  0  0  0  0
   -1.3063   -0.1597    3.8093 C   0  0  0  0  0  0  0  0  0  0  0  0
   -0.1442   -0.1706    4.6015 C   0  0  0  0  0  0  0  0  0  0  0  0
    1.1078   -0.0858    3.9461 C   0  0  0  0  0  0  0  0  0  0  0  0
    2.6164   -0.0445    4.8065 Cl  0  0  0  0  0  0  0  0  0  0  0  0
   -0.2280   -0.3126    6.0789 C   0  0  0  0  0  0  0  0  0  0  0  0
    0.6141   -0.6979    6.8201 O   0  0  0  0  0  0  0  0  0  0  0  0
   -1.8421    0.1911    6.7727 Cl  0  0  0  0  0  0  0  0  0  0  0  0
    3.9678   -0.7787    1.0441 H   0  0  0  0  0  0  0  0  0  0  0  0
    2.4089   -1.6520    0.8748 H   0  0  0  0  0  0  0  0  0  0  0  0
    3.2943   -1.6706    2.4495 H   0  0  0  0  0  0  0  0  0  0  0  0
    1.5596    1.6246   -0.5171 Au  0  0  0  0  0  0  0  0  0  0  0  0
   -2.1565   -0.0496    1.8339 H   0  0  0  0  0  0  0  0  0  0  0  0
   -2.2742   -0.2135    4.3049 H   0  0  0  0  0  0  0  0  0  0  0  0
  1  2  1  0  0  0  0
  1 16  1  0  0  0  0
  2  3  1  0  0  0  0
  3  9  2  0  0  0  0
  4  6  2  0  0  0  0
  4  3  1  0  0  0  0
  5  4  1  0  0  0  0
  6  7  1  0  0  0  0
  7 19  1  0  0  0  0
  7  8  2  0  0  0  0
  8 11  1  0  0  0  0
  9  8  1  0  0  0  0
  9 10  1  0  0  0  0
 11 13  1  0  0  0  0
 11 12  2  0  0  0  0
 14  1  1  0  0  0  0
 15  1  1  0  0  0  0
 17  5  1  0  0  0  0
 18  6  1  0  0  0  0
M  END
