313241339.xyz
 OpenBabel07262113473D
CCOc1c(F)cc(cc1C(=O)Cl)S
 22 22  0  0  0  0  0  0  0  0999 V2000
    0.3619    0.9008    8.1671 C   0  0  0  0  0  0  0  0  0  0  0  0
    0.6792    1.1198    6.7053 C   0  0  0  0  0  0  0  0  0  0  0  0
   -0.0157    0.1027    5.9584 O   0  0  0  0  0  0  0  0  0  0  0  0
    0.0031    0.1490    4.6155 C   0  0  0  0  0  0  0  0  0  0  0  0
    1.1984    0.0604    3.8764 C   0  0  0  0  0  0  0  0  0  0  0  0
    2.3598   -0.0015    4.5449 F   0  0  0  0  0  0  0  0  0  0  0  0
    1.2127    0.0000    2.4924 C   0  0  0  0  0  0  0  0  0  0  0  0
    0.0000    0.0000    1.7806 C   0  0  0  0  0  0  0  0  0  0  0  0
   -1.2038    0.0757    2.4907 C   0  0  0  0  0  0  0  0  0  0  0  0
   -1.2055    0.1864    3.8890 C   0  0  0  0  0  0  0  0  0  0  0  0
   -2.5403    0.3175    4.5367 C   0  0  0  0  0  0  0  0  0  0  0  0
   -3.5303   -0.2450    4.1991 O   0  0  0  0  0  0  0  0  0  0  0  0
   -2.6202    1.5766    5.8348 Cl  0  0  0  0  0  0  0  0  0  0  0  0
    0.0000    0.0000    0.0000 S   0  0  0  0  0  0  0  0  0  0  0  0
    0.7015   -0.0944    8.4920 H   0  0  0  0  0  0  0  0  0  0  0  0
    0.8697    1.6604    8.7812 H   0  0  0  0  0  0  0  0  0  0  0  0
   -0.7220    0.9730    8.3386 H   0  0  0  0  0  0  0  0  0  0  0  0
    0.3195    2.1049    6.3632 H   0  0  0  0  0  0  0  0  0  0  0  0
    1.7602    1.0521    6.5109 H   0  0  0  0  0  0  0  0  0  0  0  0
    2.1687   -0.0741    1.9726 H   0  0  0  0  0  0  0  0  0  0  0  0
   -2.1530    0.0719    1.9546 H   0  0  0  0  0  0  0  0  0  0  0  0
   -0.0213   -2.2468   -0.5120 Au  0  0  0  0  0  0  0  0  0  0  0  0
  1 17  1  0  0  0  0
  1 15  1  0  0  0  0
  1 16  1  0  0  0  0
  2  1  1  0  0  0  0
  3  2  1  0  0  0  0
  4  3  1  0  0  0  0
  5  6  1  0  0  0  0
  5  4  1  0  0  0  0
  7  5  2  0  0  0  0
  8  9  2  0  0  0  0
  8  7  1  0  0  0  0
  9 10  1  0  0  0  0
 10 11  1  0  0  0  0
 10  4  2  0  0  0  0
 11 13  1  0  0  0  0
 12 11  2  0  0  0  0
 14  8  1  0  0  0  0
 18  2  1  0  0  0  0
 19  2  1  0  0  0  0
 20  7  1  0  0  0  0
 21  9  1  0  0  0  0
 22 14  1  0  0  0  0
M  END
