313241596.xyz
 OpenBabel07262113473D
CCOc1ccc(c(c1S)F)C(=O)Cl
 22 22  0  0  0  0  0  0  0  0999 V2000
    3.8823   -1.6294    2.9315 C   0  0  0  0  0  0  0  0  0  0  0  0
    3.6088   -0.2129    2.4531 C   0  0  0  0  0  0  0  0  0  0  0  0
    2.3366   -0.0986    1.8156 O   0  0  0  0  0  0  0  0  0  0  0  0
    1.2061   -0.0000    2.5216 C   0  0  0  0  0  0  0  0  0  0  0  0
    1.1515    0.0786    3.9241 C   0  0  0  0  0  0  0  0  0  0  0  0
   -0.0730    0.1668    4.5701 C   0  0  0  0  0  0  0  0  0  0  0  0
   -1.2896    0.1634    3.8659 C   0  0  0  0  0  0  0  0  0  0  0  0
   -1.2191    0.0699    2.4574 C   0  0  0  0  0  0  0  0  0  0  0  0
   -0.0000   -0.0000    1.7676 C   0  0  0  0  0  0  0  0  0  0  0  0
    0.0000    0.0000    0.0000 S   0  0  0  0  0  0  0  0  0  0  0  0
   -2.3342    0.0451    1.7479 F   0  0  0  0  0  0  0  0  0  0  0  0
   -2.6082    0.2503    4.5269 C   0  0  0  0  0  0  0  0  0  0  0  0
   -3.6784    0.2812    4.0149 O   0  0  0  0  0  0  0  0  0  0  0  0
   -2.5161    0.3119    6.3601 Cl  0  0  0  0  0  0  0  0  0  0  0  0
    4.8956   -1.6936    3.3579 H   0  0  0  0  0  0  0  0  0  0  0  0
    3.8149   -2.3348    2.0895 H   0  0  0  0  0  0  0  0  0  0  0  0
    3.1652   -1.9464    3.7032 H   0  0  0  0  0  0  0  0  0  0  0  0
    3.6911    0.5224    3.2709 H   0  0  0  0  0  0  0  0  0  0  0  0
    4.3283    0.0794    1.6754 H   0  0  0  0  0  0  0  0  0  0  0  0
    2.0635    0.0764    4.5180 H   0  0  0  0  0  0  0  0  0  0  0  0
   -0.1058    0.2368    5.6561 H   0  0  0  0  0  0  0  0  0  0  0  0
    0.8766   -2.0780   -0.4851 Au  0  0  0  0  0  0  0  0  0  0  0  0
  1 15  1  0  0  0  0
  1 17  1  0  0  0  0
  2  1  1  0  0  0  0
  2 18  1  0  0  0  0
  3  2  1  0  0  0  0
  3  4  1  0  0  0  0
  4  5  2  0  0  0  0
  5 20  1  0  0  0  0
  5  6  1  0  0  0  0
  6 21  1  0  0  0  0
  7 12  1  0  0  0  0
  7  6  2  0  0  0  0
  8  7  1  0  0  0  0
  9  8  2  0  0  0  0
  9  4  1  0  0  0  0
 10  9  1  0  0  0  0
 11  8  1  0  0  0  0
 12 14  1  0  0  0  0
 13 12  2  0  0  0  0
 16  1  1  0  0  0  0
 19  2  1  0  0  0  0
 22 10  1  0  0  0  0
M  END
