313209380.xyz
 OpenBabel07262113463D
FC(Oc1c(Cl)ccc(c1C(=O)Cl)S)F
 19 19  0  0  0  0  0  0  0  0999 V2000
   -2.1573   -1.8228    5.7397 F   0  0  0  0  0  0  0  0  0  0  0  0
   -2.9453   -1.0530    4.9603 C   0  0  0  0  0  0  0  0  0  0  0  0
   -2.3061    0.1435    4.6605 O   0  0  0  0  0  0  0  0  0  0  0  0
   -1.1404    0.0742    3.9389 C   0  0  0  0  0  0  0  0  0  0  0  0
    0.1034    0.1110    4.5938 C   0  0  0  0  0  0  0  0  0  0  0  0
    0.1732    0.2217    6.3198 Cl  0  0  0  0  0  0  0  0  0  0  0  0
    1.2826    0.0808    3.8449 C   0  0  0  0  0  0  0  0  0  0  0  0
    1.2296   -0.0000    2.4556 C   0  0  0  0  0  0  0  0  0  0  0  0
    0.0000   -0.0000    1.7793 C   0  0  0  0  0  0  0  0  0  0  0  0
   -1.1869    0.0580    2.5385 C   0  0  0  0  0  0  0  0  0  0  0  0
   -2.5366    0.0890    1.8878 C   0  0  0  0  0  0  0  0  0  0  0  0
   -3.3091   -0.8172    1.8459 O   0  0  0  0  0  0  0  0  0  0  0  0
   -2.9334    1.6806    1.2019 Cl  0  0  0  0  0  0  0  0  0  0  0  0
    0.0000    0.0000    0.0000 S   0  0  0  0  0  0  0  0  0  0  0  0
   -4.0387   -0.7262    5.6476 F   0  0  0  0  0  0  0  0  0  0  0  0
   -3.2109   -1.6215    4.0542 H   0  0  0  0  0  0  0  0  0  0  0  0
    2.2404    0.1051    4.3659 H   0  0  0  0  0  0  0  0  0  0  0  0
    2.1504   -0.0608    1.8736 H   0  0  0  0  0  0  0  0  0  0  0  0
   -1.0336   -1.9987   -0.5114 Au  0  0  0  0  0  0  0  0  0  0  0  0
  2 15  1  0  0  0  0
  2  1  1  0  0  0  0
  3  2  1  0  0  0  0
  4  5  1  0  0  0  0
  4  3  1  0  0  0  0
  5  6  1  0  0  0  0
  7 17  1  0  0  0  0
  7  5  2  0  0  0  0
  8  7  1  0  0  0  0
  9  8  2  0  0  0  0
  9 10  1  0  0  0  0
 10  4  2  0  0  0  0
 11 10  1  0  0  0  0
 12 11  2  0  0  0  0
 13 11  1  0  0  0  0
 14  9  1  0  0  0  0
 16  2  1  0  0  0  0
 18  8  1  0  0  0  0
 19 14  1  0  0  0  0
M  END
