313256515.xyz
 OpenBabel07262113473D
FC(c1cc(cc(c1S)Cl)OC(F)(F)F)F
 20 20  0  0  0  0  0  0  0  0999 V2000
    3.5606    0.3839    2.5509 F   0  0  0  0  0  0  0  0  0  0  0  0
    2.5355    0.0776    1.7104 C   0  0  0  0  0  0  0  0  0  0  0  0
    1.2309   -0.0000    2.4732 C   0  0  0  0  0  0  0  0  0  0  0  0
    1.2696   -0.1030    3.8602 C   0  0  0  0  0  0  0  0  0  0  0  0
    0.0809   -0.1848    4.5847 C   0  0  0  0  0  0  0  0  0  0  0  0
   -1.1541   -0.1627    3.9378 C   0  0  0  0  0  0  0  0  0  0  0  0
   -1.1807   -0.0810    2.5439 C   0  0  0  0  0  0  0  0  0  0  0  0
   -0.0000   -0.0000    1.7742 C   0  0  0  0  0  0  0  0  0  0  0  0
    0.0000    0.0000    0.0000 S   0  0  0  0  0  0  0  0  0  0  0  0
   -2.7445   -0.0411    1.7853 Cl  0  0  0  0  0  0  0  0  0  0  0  0
    0.2383   -0.2634    5.9562 O   0  0  0  0  0  0  0  0  0  0  0  0
   -0.7825   -0.5939    6.7820 C   0  0  0  0  0  0  0  0  0  0  0  0
   -1.3462   -1.7604    6.4466 F   0  0  0  0  0  0  0  0  0  0  0  0
   -0.2905   -0.6901    8.0056 F   0  0  0  0  0  0  0  0  0  0  0  0
   -1.7530    0.3338    6.7853 F   0  0  0  0  0  0  0  0  0  0  0  0
    2.8210   -1.1273    1.1463 F   0  0  0  0  0  0  0  0  0  0  0  0
    2.4981    0.8312    0.9082 H   0  0  0  0  0  0  0  0  0  0  0  0
    2.2221   -0.1081    4.3882 H   0  0  0  0  0  0  0  0  0  0  0  0
   -2.0940   -0.2064    4.4821 H   0  0  0  0  0  0  0  0  0  0  0  0
   -1.0259    2.0089   -0.5032 Au  0  0  0  0  0  0  0  0  0  0  0  0
  2  3  1  0  0  0  0
  2  1  1  0  0  0  0
  3  4  1  0  0  0  0
  4 18  1  0  0  0  0
  4  5  2  0  0  0  0
  5 11  1  0  0  0  0
  6 19  1  0  0  0  0
  6  5  1  0  0  0  0
  7  6  2  0  0  0  0
  8  3  2  0  0  0  0
  8  7  1  0  0  0  0
  9  8  1  0  0  0  0
 10  7  1  0  0  0  0
 11 12  1  0  0  0  0
 12 15  1  0  0  0  0
 12 14  1  0  0  0  0
 13 12  1  0  0  0  0
 16  2  1  0  0  0  0
 17  2  1  0  0  0  0
 20  9  1  0  0  0  0
M  END
