313286499.xyz
 OpenBabel07262113473D
CCOC(=O)c1ccc(c(c1Cl)Br)S
 22 22  0  0  0  0  0  0  0  0999 V2000
   -0.9150    0.1603    8.8330 C   0  0  0  0  0  0  0  0  0  0  0  0
   -0.2312    1.3071    8.1101 C   0  0  0  0  0  0  0  0  0  0  0  0
   -0.3610    1.1714    6.6829 O   0  0  0  0  0  0  0  0  0  0  0  0
    0.4904    0.3500    6.0638 C   0  0  0  0  0  0  0  0  0  0  0  0
    1.4243   -0.1962    6.6047 O   0  0  0  0  0  0  0  0  0  0  0  0
    0.2270    0.2261    4.5909 C   0  0  0  0  0  0  0  0  0  0  0  0
    1.3654    0.1120    3.7810 C   0  0  0  0  0  0  0  0  0  0  0  0
    1.2583   -0.0000    2.4039 C   0  0  0  0  0  0  0  0  0  0  0  0
    0.0000    0.0000    1.7743 C   0  0  0  0  0  0  0  0  0  0  0  0
   -1.1575    0.0821    2.5842 C   0  0  0  0  0  0  0  0  0  0  0  0
   -1.0450    0.1802    3.9866 C   0  0  0  0  0  0  0  0  0  0  0  0
   -2.4882    0.1810    4.9579 Cl  0  0  0  0  0  0  0  0  0  0  0  0
   -2.8774    0.0278    1.7908 Br  0  0  0  0  0  0  0  0  0  0  0  0
    0.0000    0.0000    0.0000 S   0  0  0  0  0  0  0  0  0  0  0  0
   -1.9673    0.0778    8.5219 H   0  0  0  0  0  0  0  0  0  0  0  0
   -0.4068   -0.7911    8.6188 H   0  0  0  0  0  0  0  0  0  0  0  0
   -0.8836    0.3292    9.9210 H   0  0  0  0  0  0  0  0  0  0  0  0
    0.8366    1.3607    8.3685 H   0  0  0  0  0  0  0  0  0  0  0  0
   -0.7085    2.2701    8.3381 H   0  0  0  0  0  0  0  0  0  0  0  0
    2.3416    0.1046    4.2678 H   0  0  0  0  0  0  0  0  0  0  0  0
    2.1498   -0.0935    1.7827 H   0  0  0  0  0  0  0  0  0  0  0  0
   -1.1310   -1.9495   -0.5160 Au  0  0  0  0  0  0  0  0  0  0  0  0
  1 17  1  0  0  0  0
  2 19  1  0  0  0  0
  2 18  1  0  0  0  0
  2  1  1  0  0  0  0
  3  2  1  0  0  0  0
  4  5  2  0  0  0  0
  4  3  1  0  0  0  0
  6  4  1  0  0  0  0
  7 20  1  0  0  0  0
  7  6  2  0  0  0  0
  8  7  1  0  0  0  0
  9  8  2  0  0  0  0
  9 10  1  0  0  0  0
 10 11  2  0  0  0  0
 11  6  1  0  0  0  0
 11 12  1  0  0  0  0
 13 10  1  0  0  0  0
 14  9  1  0  0  0  0
 15  1  1  0  0  0  0
 16  1  1  0  0  0  0
 21  8  1  0  0  0  0
 22 14  1  0  0  0  0
M  END
