313255851.xyz
 OpenBabel07262113473D
CC(=O)c1cc(S)c(cc1C(F)(F)F)Cl
 21 21  0  0  0  0  0  0  0  0999 V2000
    3.9200    0.3861    3.5950 C   0  0  0  0  0  0  0  0  0  0  0  0
    2.7781   -0.2194    4.3906 C   0  0  0  0  0  0  0  0  0  0  0  0
    2.9802   -0.7768    5.4457 O   0  0  0  0  0  0  0  0  0  0  0  0
    1.3862   -0.1274    3.8106 C   0  0  0  0  0  0  0  0  0  0  0  0
    1.2451   -0.0000    2.4250 C   0  0  0  0  0  0  0  0  0  0  0  0
   -0.0000   -0.0000    1.7725 C   0  0  0  0  0  0  0  0  0  0  0  0
    0.0000    0.0000    0.0000 S   0  0  0  0  0  0  0  0  0  0  0  0
   -1.1481   -0.0903    2.5820 C   0  0  0  0  0  0  0  0  0  0  0  0
   -1.0343   -0.1651    3.9722 C   0  0  0  0  0  0  0  0  0  0  0  0
    0.2110   -0.1977    4.5988 C   0  0  0  0  0  0  0  0  0  0  0  0
    0.2162   -0.2642    6.1206 C   0  0  0  0  0  0  0  0  0  0  0  0
    1.0274    0.6564    6.6575 F   0  0  0  0  0  0  0  0  0  0  0  0
    0.5634   -1.4685    6.5800 F   0  0  0  0  0  0  0  0  0  0  0  0
   -1.0206   -0.0117    6.6056 F   0  0  0  0  0  0  0  0  0  0  0  0
   -2.7442   -0.0696    1.8982 Cl  0  0  0  0  0  0  0  0  0  0  0  0
    3.6829    1.4031    3.2476 H   0  0  0  0  0  0  0  0  0  0  0  0
    4.8112    0.4017    4.2345 H   0  0  0  0  0  0  0  0  0  0  0  0
    4.1413   -0.2258    2.7054 H   0  0  0  0  0  0  0  0  0  0  0  0
    2.1302    0.0871    1.7961 H   0  0  0  0  0  0  0  0  0  0  0  0
   -1.2557    1.8660   -0.5219 Au  0  0  0  0  0  0  0  0  0  0  0  0
   -1.9431   -0.1984    4.5698 H   0  0  0  0  0  0  0  0  0  0  0  0
  1 17  1  0  0  0  0
  1  2  1  0  0  0  0
  2  3  2  0  0  0  0
  4  2  1  0  0  0  0
  4 10  2  0  0  0  0
  5  4  1  0  0  0  0
  6  5  2  0  0  0  0
  6  8  1  0  0  0  0
  7  6  1  0  0  0  0
  8  9  2  0  0  0  0
  9 21  1  0  0  0  0
  9 10  1  0  0  0  0
 10 11  1  0  0  0  0
 11 13  1  0  0  0  0
 11 14  1  0  0  0  0
 11 12  1  0  0  0  0
 15  8  1  0  0  0  0
 16  1  1  0  0  0  0
 18  1  1  0  0  0  0
 19  5  1  0  0  0  0
 20  7  1  0  0  0  0
M  END
