313209647.xyz
 OpenBabel07262113463D
N#CCc1c(OC(F)F)cc(cc1Cl)S
 21 21  0  0  0  0  0  0  0  0999 V2000
    0.4385    2.7119    6.9591 N   0  0  0  0  0  0  0  0  0  0  0  0
    0.2467    1.6304    6.5930 C   0  0  0  0  0  0  0  0  0  0  0  0
    0.0059    0.2637    6.1167 C   0  0  0  0  0  0  0  0  0  0  0  0
    0.0187    0.1708    4.6063 C   0  0  0  0  0  0  0  0  0  0  0  0
   -1.1887    0.1744    3.8816 C   0  0  0  0  0  0  0  0  0  0  0  0
   -2.3337    0.2734    4.6360 O   0  0  0  0  0  0  0  0  0  0  0  0
   -3.5107   -0.2384    4.1475 C   0  0  0  0  0  0  0  0  0  0  0  0
   -4.3268   -0.3947    5.1921 F   0  0  0  0  0  0  0  0  0  0  0  0
   -4.0892    0.6327    3.2905 F   0  0  0  0  0  0  0  0  0  0  0  0
   -1.2101    0.1051    2.4884 C   0  0  0  0  0  0  0  0  0  0  0  0
   -0.0000   -0.0000    1.7847 C   0  0  0  0  0  0  0  0  0  0  0  0
    1.2165   -0.0000    2.4775 C   0  0  0  0  0  0  0  0  0  0  0  0
    1.2096    0.0981    3.8701 C   0  0  0  0  0  0  0  0  0  0  0  0
    2.7388    0.1173    4.7120 Cl  0  0  0  0  0  0  0  0  0  0  0  0
    0.0000    0.0000    0.0000 S   0  0  0  0  0  0  0  0  0  0  0  0
   -0.9680   -0.0692    6.5014 H   0  0  0  0  0  0  0  0  0  0  0  0
    0.7859   -0.3877    6.5391 H   0  0  0  0  0  0  0  0  0  0  0  0
   -3.3634   -1.2012    3.6250 H   0  0  0  0  0  0  0  0  0  0  0  0
   -2.1471    0.1626    1.9374 H   0  0  0  0  0  0  0  0  0  0  0  0
    2.1597   -0.0689    1.9372 H   0  0  0  0  0  0  0  0  0  0  0  0
   -0.3286   -2.2242   -0.4958 Au  0  0  0  0  0  0  0  0  0  0  0  0
  2  1  3  0  0  0  0
  3 16  1  0  0  0  0
  3 17  1  0  0  0  0
  3  2  1  0  0  0  0
  4  3  1  0  0  0  0
  5  4  1  0  0  0  0
  5  6  1  0  0  0  0
  7  6  1  0  0  0  0
  7  8  1  0  0  0  0
  9  7  1  0  0  0  0
 10  5  2  0  0  0  0
 11 12  2  0  0  0  0
 11 10  1  0  0  0  0
 12 13  1  0  0  0  0
 13  4  2  0  0  0  0
 13 14  1  0  0  0  0
 15 11  1  0  0  0  0
 18  7  1  0  0  0  0
 19 10  1  0  0  0  0
 20 12  1  0  0  0  0
 21 15  1  0  0  0  0
M  END
