313214819.xyz
 OpenBabel07262113463D
[O-][N+](=O)c1ccc(c(c1Br)C(F)(F)F)S
 18 18  0  0  0  0  0  0  0  0999 V2000
   -1.4994    0.5139    6.4492 O   0  0  0  0  0  0  0  0  0  0  0  0
   -0.6997   -0.2844    5.9897 N   0  0  0  0  0  0  0  0  0  0  0  0
   -0.1888   -1.2087    6.5906 O   0  0  0  0  0  0  0  0  0  0  0  0
   -0.3841   -0.1308    4.5542 C   0  0  0  0  0  0  0  0  0  0  0  0
   -1.4842    0.0247    3.7147 C   0  0  0  0  0  0  0  0  0  0  0  0
   -1.2926    0.0385    2.3443 C   0  0  0  0  0  0  0  0  0  0  0  0
    0.0000    0.0000    1.7889 C   0  0  0  0  0  0  0  0  0  0  0  0
    1.1283    0.0000    2.6523 C   0  0  0  0  0  0  0  0  0  0  0  0
    0.9230   -0.1521    4.0461 C   0  0  0  0  0  0  0  0  0  0  0  0
    2.3718   -0.3763    5.2558 Br  0  0  0  0  0  0  0  0  0  0  0  0
    2.5604    0.1402    2.1320 C   0  0  0  0  0  0  0  0  0  0  0  0
    3.2573    1.0231    2.8598 F   0  0  0  0  0  0  0  0  0  0  0  0
    3.2065   -1.0426    2.1840 F   0  0  0  0  0  0  0  0  0  0  0  0
    2.6323    0.5721    0.8719 F   0  0  0  0  0  0  0  0  0  0  0  0
    0.0000    0.0000    0.0000 S   0  0  0  0  0  0  0  0  0  0  0  0
   -2.4814    0.0789    4.1521 H   0  0  0  0  0  0  0  0  0  0  0  0
   -2.1492    0.0569    1.6698 H   0  0  0  0  0  0  0  0  0  0  0  0
    1.1602   -1.9241   -0.5153 Au  0  0  0  0  0  0  0  0  0  0  0  0
  2  1  2  0  0  0  0
  2  3  2  0  0  0  0
  4  2  1  0  0  0  0
  5 16  1  0  0  0  0
  5  4  2  0  0  0  0
  6  5  1  0  0  0  0
  7  6  2  0  0  0  0
  7  8  1  0  0  0  0
  8  9  2  0  0  0  0
  9  4  1  0  0  0  0
  9 10  1  0  0  0  0
 11 13  1  0  0  0  0
 11  8  1  0  0  0  0
 11 12  1  0  0  0  0
 14 11  1  0  0  0  0
 15  7  1  0  0  0  0
 17  6  1  0  0  0  0
 18 15  1  0  0  0  0
M  END
