313267690.xyz
 OpenBabel07262113473D
ClC(=O)c1cc(F)c(cc1S)C(F)(F)F
 18 18  0  0  0  0  0  0  0  0999 V2000
    3.8077    0.7835    2.7893 Cl  0  0  0  0  0  0  0  0  0  0  0  0
    2.5205   -0.2178    2.0029 C   0  0  0  0  0  0  0  0  0  0  0  0
    2.8050   -0.9557    1.1184 O   0  0  0  0  0  0  0  0  0  0  0  0
    1.1651   -0.0000    2.5920 C   0  0  0  0  0  0  0  0  0  0  0  0
    1.0530    0.1542    3.9803 C   0  0  0  0  0  0  0  0  0  0  0  0
   -0.1961    0.2894    4.5676 C   0  0  0  0  0  0  0  0  0  0  0  0
   -0.2789    0.4190    5.8910 F   0  0  0  0  0  0  0  0  0  0  0  0
   -1.3626    0.2985    3.7952 C   0  0  0  0  0  0  0  0  0  0  0  0
   -1.2464    0.1574    2.4141 C   0  0  0  0  0  0  0  0  0  0  0  0
    0.0000   -0.0000    1.7824 C   0  0  0  0  0  0  0  0  0  0  0  0
    0.0000    0.0000    0.0000 S   0  0  0  0  0  0  0  0  0  0  0  0
   -2.7111    0.4559    4.4597 C   0  0  0  0  0  0  0  0  0  0  0  0
   -2.9407   -0.5359    5.3332 F   0  0  0  0  0  0  0  0  0  0  0  0
   -3.7051    0.4404    3.5586 F   0  0  0  0  0  0  0  0  0  0  0  0
   -2.7908    1.6136    5.1317 F   0  0  0  0  0  0  0  0  0  0  0  0
    1.9394    0.1719    4.6134 H   0  0  0  0  0  0  0  0  0  0  0  0
   -2.1454    0.1675    1.7987 H   0  0  0  0  0  0  0  0  0  0  0  0
    0.4238   -2.2101   -0.5117 Au  0  0  0  0  0  0  0  0  0  0  0  0
  2  4  1  0  0  0  0
  2  1  1  0  0  0  0
  3  2  2  0  0  0  0
  4  5  2  0  0  0  0
  5  6  1  0  0  0  0
  5 16  1  0  0  0  0
  6  7  1  0  0  0  0
  8 12  1  0  0  0  0
  8  6  2  0  0  0  0
  9  8  1  0  0  0  0
 10  9  2  0  0  0  0
 10  4  1  0  0  0  0
 11 10  1  0  0  0  0
 12 15  1  0  0  0  0
 12 13  1  0  0  0  0
 14 12  1  0  0  0  0
 17  9  1  0  0  0  0
 18 11  1  0  0  0  0
M  END
