313295588.xyz
 OpenBabel07262113473D
N#CCc1cc(F)c(cc1[N+](=O)[O-])S
 19 19  0  0  0  0  0  0  0  0999 V2000
    0.7324   -1.9162    7.3060 N   0  0  0  0  0  0  0  0  0  0  0  0
    0.4333   -0.9187    6.8003 C   0  0  0  0  0  0  0  0  0  0  0  0
    0.0180    0.3240    6.1422 C   0  0  0  0  0  0  0  0  0  0  0  0
    0.0740    0.2266    4.6266 C   0  0  0  0  0  0  0  0  0  0  0  0
   -1.1377    0.1992    3.9272 C   0  0  0  0  0  0  0  0  0  0  0  0
   -1.1720    0.1051    2.5406 C   0  0  0  0  0  0  0  0  0  0  0  0
   -2.3580    0.0837    1.9390 F   0  0  0  0  0  0  0  0  0  0  0  0
   -0.0000   -0.0000    1.7727 C   0  0  0  0  0  0  0  0  0  0  0  0
    1.2141    0.0000    2.4679 C   0  0  0  0  0  0  0  0  0  0  0  0
    1.2510    0.1249    3.8573 C   0  0  0  0  0  0  0  0  0  0  0  0
    2.5973    0.1423    4.4708 N   0  0  0  0  0  0  0  0  0  0  0  0
    2.6884    0.4848    5.6402 O   0  0  0  0  0  0  0  0  0  0  0  0
    3.5402   -0.1704    3.7673 O   0  0  0  0  0  0  0  0  0  0  0  0
    0.0000    0.0000    0.0000 S   0  0  0  0  0  0  0  0  0  0  0  0
   -1.0185    0.5374    6.4444 H   0  0  0  0  0  0  0  0  0  0  0  0
    0.6569    1.1389    6.5068 H   0  0  0  0  0  0  0  0  0  0  0  0
   -2.0871    0.2584    4.4622 H   0  0  0  0  0  0  0  0  0  0  0  0
    2.1535   -0.0997    1.9268 H   0  0  0  0  0  0  0  0  0  0  0  0
   -1.2713   -1.8504   -0.5173 Au  0  0  0  0  0  0  0  0  0  0  0  0
  2  1  3  0  0  0  0
  3 15  1  0  0  0  0
  3 16  1  0  0  0  0
  3  2  1  0  0  0  0
  4  3  1  0  0  0  0
  5 17  1  0  0  0  0
  5  4  1  0  0  0  0
  6  5  2  0  0  0  0
  7  6  1  0  0  0  0
  8  9  2  0  0  0  0
  8  6  1  0  0  0  0
  9 10  1  0  0  0  0
 10 11  1  0  0  0  0
 10  4  2  0  0  0  0
 11 12  2  0  0  0  0
 13 11  2  0  0  0  0
 14  8  1  0  0  0  0
 18  9  1  0  0  0  0
 19 14  1  0  0  0  0
M  END
