313296098.xyz
 OpenBabel07262113473D
OC(=O)Cc1cc(F)c(cc1[N+](=O)[O-])S
 21 21  0  0  0  0  0  0  0  0999 V2000
   -0.8384    1.8335    6.7382 O   0  0  0  0  0  0  0  0  0  0  0  0
    0.2366    1.0446    6.7732 C   0  0  0  0  0  0  0  0  0  0  0  0
    1.2888    1.4023    7.2284 O   0  0  0  0  0  0  0  0  0  0  0  0
    0.0456   -0.3463    6.1361 C   0  0  0  0  0  0  0  0  0  0  0  0
   -0.0406   -0.2273    4.6332 C   0  0  0  0  0  0  0  0  0  0  0  0
    1.1635   -0.1067    3.9238 C   0  0  0  0  0  0  0  0  0  0  0  0
    1.1811   -0.0000    2.5405 C   0  0  0  0  0  0  0  0  0  0  0  0
    2.3547    0.1264    1.9303 F   0  0  0  0  0  0  0  0  0  0  0  0
    0.0000   -0.0000    1.7718 C   0  0  0  0  0  0  0  0  0  0  0  0
   -1.2053   -0.1098    2.4682 C   0  0  0  0  0  0  0  0  0  0  0  0
   -1.2213   -0.2080    3.8633 C   0  0  0  0  0  0  0  0  0  0  0  0
   -2.5497   -0.2936    4.4776 N   0  0  0  0  0  0  0  0  0  0  0  0
   -3.4464   -0.7986    3.8356 O   0  0  0  0  0  0  0  0  0  0  0  0
   -2.7024    0.1676    5.6137 O   0  0  0  0  0  0  0  0  0  0  0  0
    0.0000    0.0000    0.0000 S   0  0  0  0  0  0  0  0  0  0  0  0
   -1.5973    1.3485    6.3496 H   0  0  0  0  0  0  0  0  0  0  0  0
   -0.8446   -0.8302    6.5570 H   0  0  0  0  0  0  0  0  0  0  0  0
    0.9327   -0.9330    6.4016 H   0  0  0  0  0  0  0  0  0  0  0  0
    2.1140   -0.1027    4.4604 H   0  0  0  0  0  0  0  0  0  0  0  0
   -2.1488   -0.1100    1.9241 H   0  0  0  0  0  0  0  0  0  0  0  0
    1.0863    1.9662   -0.5142 Au  0  0  0  0  0  0  0  0  0  0  0  0
  1  2  1  0  0  0  0
  2  3  2  0  0  0  0
  4 18  1  0  0  0  0
  4 17  1  0  0  0  0
  4  2  1  0  0  0  0
  5  4  1  0  0  0  0
  6 19  1  0  0  0  0
  6  5  1  0  0  0  0
  7  6  2  0  0  0  0
  8  7  1  0  0  0  0
  9 10  2  0  0  0  0
  9  7  1  0  0  0  0
 10 11  1  0  0  0  0
 11 12  1  0  0  0  0
 11  5  2  0  0  0  0
 12 14  2  0  0  0  0
 13 12  2  0  0  0  0
 15  9  1  0  0  0  0
 16  1  1  0  0  0  0
 20 10  1  0  0  0  0
 21 15  1  0  0  0  0
M  END
