313239037.xyz
 OpenBabel07262113473D
CCOc1cc(S)c(c(c1)C(=O)Cl)F
 22 22  0  0  0  0  0  0  0  0999 V2000
    2.5358   -1.7369    6.2401 C   0  0  0  0  0  0  0  0  0  0  0  0
    2.6845   -0.2875    5.8013 C   0  0  0  0  0  0  0  0  0  0  0  0
    2.5178   -0.1141    4.3972 O   0  0  0  0  0  0  0  0  0  0  0  0
    1.2799   -0.1251    3.8522 C   0  0  0  0  0  0  0  0  0  0  0  0
    1.2219   -0.0000    2.4539 C   0  0  0  0  0  0  0  0  0  0  0  0
    0.0000   -0.0000    1.7762 C   0  0  0  0  0  0  0  0  0  0  0  0
    0.0000    0.0000    0.0000 S   0  0  0  0  0  0  0  0  0  0  0  0
   -1.1896   -0.1053    2.5227 C   0  0  0  0  0  0  0  0  0  0  0  0
   -1.1552   -0.2064    3.9225 C   0  0  0  0  0  0  0  0  0  0  0  0
    0.0919   -0.2234    4.5779 C   0  0  0  0  0  0  0  0  0  0  0  0
   -2.4363   -0.2888    4.6696 C   0  0  0  0  0  0  0  0  0  0  0  0
   -3.5283   -0.0907    4.2523 O   0  0  0  0  0  0  0  0  0  0  0  0
   -2.2408   -0.7694    6.4271 Cl  0  0  0  0  0  0  0  0  0  0  0  0
   -2.3494   -0.0938    1.8750 F   0  0  0  0  0  0  0  0  0  0  0  0
    3.2363   -2.3774    5.6831 H   0  0  0  0  0  0  0  0  0  0  0  0
    2.7613   -1.8278    7.3143 H   0  0  0  0  0  0  0  0  0  0  0  0
    1.5170   -2.1179    6.0752 H   0  0  0  0  0  0  0  0  0  0  0  0
    3.7045    0.0701    6.0032 H   0  0  0  0  0  0  0  0  0  0  0  0
    1.9925    0.3756    6.3506 H   0  0  0  0  0  0  0  0  0  0  0  0
    2.1535    0.0988    1.8956 H   0  0  0  0  0  0  0  0  0  0  0  0
   -1.2805    1.8421   -0.5223 Au  0  0  0  0  0  0  0  0  0  0  0  0
    0.0929   -0.3098    5.6599 H   0  0  0  0  0  0  0  0  0  0  0  0
  1 16  1  0  0  0  0
  2 18  1  0  0  0  0
  2  1  1  0  0  0  0
  2 19  1  0  0  0  0
  3  2  1  0  0  0  0
  4  3  1  0  0  0  0
  4 10  2  0  0  0  0
  5  4  1  0  0  0  0
  6  5  2  0  0  0  0
  6  8  1  0  0  0  0
  7  6  1  0  0  0  0
  8  9  2  0  0  0  0
  9 10  1  0  0  0  0
  9 11  1  0  0  0  0
 10 22  1  0  0  0  0
 11 13  1  0  0  0  0
 12 11  2  0  0  0  0
 14  8  1  0  0  0  0
 15  1  1  0  0  0  0
 17  1  1  0  0  0  0
 20  5  1  0  0  0  0
 21  7  1  0  0  0  0
M  END
