313212708.xyz
 OpenBabel07262113463D
FC(Oc1cc(S)c(cc1C(=O)Cl)Cl)F
 19 19  0  0  0  0  0  0  0  0999 V2000
   -2.4632    2.3117    5.3273 F   0  0  0  0  0  0  0  0  0  0  0  0
   -3.1554    1.5710    4.4309 C   0  0  0  0  0  0  0  0  0  0  0  0
   -2.6192    0.3062    4.3362 O   0  0  0  0  0  0  0  0  0  0  0  0
   -1.3626    0.2128    3.7892 C   0  0  0  0  0  0  0  0  0  0  0  0
   -1.2497    0.1035    2.4071 C   0  0  0  0  0  0  0  0  0  0  0  0
   -0.0000    0.0000    1.7687 C   0  0  0  0  0  0  0  0  0  0  0  0
    0.0000    0.0000    0.0000 S   0  0  0  0  0  0  0  0  0  0  0  0
    1.1504    0.0000    2.5903 C   0  0  0  0  0  0  0  0  0  0  0  0
    1.0392    0.0927    3.9749 C   0  0  0  0  0  0  0  0  0  0  0  0
   -0.2086    0.2018    4.6038 C   0  0  0  0  0  0  0  0  0  0  0  0
   -0.3323    0.2384    6.0873 C   0  0  0  0  0  0  0  0  0  0  0  0
   -1.2672   -0.0937    6.7345 O   0  0  0  0  0  0  0  0  0  0  0  0
    1.1584    0.8739    6.9194 Cl  0  0  0  0  0  0  0  0  0  0  0  0
    2.7496   -0.1338    1.9160 Cl  0  0  0  0  0  0  0  0  0  0  0  0
   -4.4055    1.4315    4.8665 F   0  0  0  0  0  0  0  0  0  0  0  0
   -3.1422    2.1087    3.4642 H   0  0  0  0  0  0  0  0  0  0  0  0
   -2.1595    0.0823    1.8057 H   0  0  0  0  0  0  0  0  0  0  0  0
    1.2734   -1.8518   -0.5365 Au  0  0  0  0  0  0  0  0  0  0  0  0
    1.9419    0.0880    4.5830 H   0  0  0  0  0  0  0  0  0  0  0  0
  2 15  1  0  0  0  0
  2  1  1  0  0  0  0
  3  2  1  0  0  0  0
  4  3  1  0  0  0  0
  4 10  2  0  0  0  0
  5  4  1  0  0  0  0
  6  5  2  0  0  0  0
  6  8  1  0  0  0  0
  7  6  1  0  0  0  0
  8  9  2  0  0  0  0
  9 19  1  0  0  0  0
  9 10  1  0  0  0  0
 10 11  1  0  0  0  0
 11 12  2  0  0  0  0
 11 13  1  0  0  0  0
 14  8  1  0  0  0  0
 16  2  1  0  0  0  0
 17  5  1  0  0  0  0
 18  7  1  0  0  0  0
M  END
