313297382.xyz
 OpenBabel07262113473D
Fc1ccc(c(c1OC(F)(F)F)C(=O)N)S
 21 21  0  0  0  0  0  0  0  0999 V2000
   -0.2217   -0.1990    5.9129 F   0  0  0  0  0  0  0  0  0  0  0  0
   -0.1569   -0.1574    4.5828 C   0  0  0  0  0  0  0  0  0  0  0  0
   -1.3232   -0.1699    3.8274 C   0  0  0  0  0  0  0  0  0  0  0  0
   -1.2403   -0.0912    2.4385 C   0  0  0  0  0  0  0  0  0  0  0  0
   -0.0000    0.0000    1.7844 C   0  0  0  0  0  0  0  0  0  0  0  0
    1.1819    0.0000    2.5592 C   0  0  0  0  0  0  0  0  0  0  0  0
    1.0908   -0.0919    3.9507 C   0  0  0  0  0  0  0  0  0  0  0  0
    2.2570   -0.0403    4.7077 O   0  0  0  0  0  0  0  0  0  0  0  0
    2.7459   -1.1778    5.2590 C   0  0  0  0  0  0  0  0  0  0  0  0
    4.0005   -0.9503    5.6125 F   0  0  0  0  0  0  0  0  0  0  0  0
    2.0621   -1.5705    6.3341 F   0  0  0  0  0  0  0  0  0  0  0  0
    2.7232   -2.2107    4.3888 F   0  0  0  0  0  0  0  0  0  0  0  0
    2.5456    0.2251    1.9313 C   0  0  0  0  0  0  0  0  0  0  0  0
    2.8931    1.3370    1.5665 O   0  0  0  0  0  0  0  0  0  0  0  0
    3.3182   -0.8759    1.8114 N   0  0  0  0  0  0  0  0  0  0  0  0
    0.0000    0.0000    0.0000 S   0  0  0  0  0  0  0  0  0  0  0  0
   -2.2837   -0.2232    4.3427 H   0  0  0  0  0  0  0  0  0  0  0  0
   -2.1501   -0.0850    1.8366 H   0  0  0  0  0  0  0  0  0  0  0  0
    4.2430   -0.7764    1.4079 H   0  0  0  0  0  0  0  0  0  0  0  0
    3.0252   -1.7722    2.1758 H   0  0  0  0  0  0  0  0  0  0  0  0
    0.9689    2.0564   -0.4409 Au  0  0  0  0  0  0  0  0  0  0  0  0
  2  1  1  0  0  0  0
  3 17  1  0  0  0  0
  3  2  2  0  0  0  0
  4  3  1  0  0  0  0
  5  4  2  0  0  0  0
  5  6  1  0  0  0  0
  6  7  2  0  0  0  0
  7  2  1  0  0  0  0
  7  8  1  0  0  0  0
  8  9  1  0  0  0  0
  9 10  1  0  0  0  0
  9 11  1  0  0  0  0
 12  9  1  0  0  0  0
 13  6  1  0  0  0  0
 14 13  2  0  0  0  0
 15 13  1  0  0  0  0
 15 20  1  0  0  0  0
 16  5  1  0  0  0  0
 18  4  1  0  0  0  0
 19 15  1  0  0  0  0
 21 16  1  0  0  0  0
M  END
