313376605.xyz
 OpenBabel07262113483D
CCOc1c(F)ccc(c1C(=O)OC)S
 26 26  0  0  0  0  0  0  0  0999 V2000
   -4.0622    1.5035    5.7214 C   0  0  0  0  0  0  0  0  0  0  0  0
   -2.6943    1.6148    5.0875 C   0  0  0  0  0  0  0  0  0  0  0  0
   -2.3186    0.3069    4.6206 O   0  0  0  0  0  0  0  0  0  0  0  0
   -1.1626    0.2404    3.9151 C   0  0  0  0  0  0  0  0  0  0  0  0
    0.0827    0.2465    4.5626 C   0  0  0  0  0  0  0  0  0  0  0  0
    0.1081    0.3685    5.8944 F   0  0  0  0  0  0  0  0  0  0  0  0
    1.2717    0.1256    3.8526 C   0  0  0  0  0  0  0  0  0  0  0  0
    1.2278   -0.0000    2.4642 C   0  0  0  0  0  0  0  0  0  0  0  0
   -0.0000   -0.0000    1.7819 C   0  0  0  0  0  0  0  0  0  0  0  0
   -1.1958    0.1290    2.5194 C   0  0  0  0  0  0  0  0  0  0  0  0
   -2.5458    0.2095    1.8660 C   0  0  0  0  0  0  0  0  0  0  0  0
   -3.2335    1.2003    1.8587 O   0  0  0  0  0  0  0  0  0  0  0  0
   -2.9072   -0.9562    1.3167 O   0  0  0  0  0  0  0  0  0  0  0  0
   -4.1462   -0.9581    0.6064 C   0  0  0  0  0  0  0  0  0  0  0  0
    0.0000    0.0000    0.0000 S   0  0  0  0  0  0  0  0  0  0  0  0
   -4.7993    1.1629    4.9789 H   0  0  0  0  0  0  0  0  0  0  0  0
   -4.3821    2.4834    6.1080 H   0  0  0  0  0  0  0  0  0  0  0  0
   -4.0471    0.7854    6.5555 H   0  0  0  0  0  0  0  0  0  0  0  0
   -1.9425    1.9712    5.8133 H   0  0  0  0  0  0  0  0  0  0  0  0
   -2.7110    2.3016    4.2250 H   0  0  0  0  0  0  0  0  0  0  0  0
    2.2172    0.1293    4.3979 H   0  0  0  0  0  0  0  0  0  0  0  0
    2.1503   -0.0942    1.8898 H   0  0  0  0  0  0  0  0  0  0  0  0
   -4.9781   -0.6953    1.2761 H   0  0  0  0  0  0  0  0  0  0  0  0
   -4.1137   -0.2332   -0.2203 H   0  0  0  0  0  0  0  0  0  0  0  0
   -4.2714   -1.9756    0.2176 H   0  0  0  0  0  0  0  0  0  0  0  0
   -0.4578   -2.2050   -0.5043 Au  0  0  0  0  0  0  0  0  0  0  0  0
  1 17  1  0  0  0  0
  1 18  1  0  0  0  0
  2  1  1  0  0  0  0
  2 19  1  0  0  0  0
  3  2  1  0  0  0  0
  4  5  1  0  0  0  0
  4  3  1  0  0  0  0
  5  6  1  0  0  0  0
  7 21  1  0  0  0  0
  7  5  2  0  0  0  0
  8  7  1  0  0  0  0
  9  8  2  0  0  0  0
  9 10  1  0  0  0  0
 10  4  2  0  0  0  0
 11 10  1  0  0  0  0
 12 11  2  0  0  0  0
 13 11  1  0  0  0  0
 14 23  1  0  0  0  0
 14 13  1  0  0  0  0
 15  9  1  0  0  0  0
 16  1  1  0  0  0  0
 20  2  1  0  0  0  0
 22  8  1  0  0  0  0
 24 14  1  0  0  0  0
 25 14  1  0  0  0  0
 26 15  1  0  0  0  0
M  END
