313369971.xyz
 OpenBabel07262113483D
COC(=O)Cc1cc(F)c(c(c1)S)OC(F)(F)F
 26 26  0  0  0  0  0  0  0  0999 V2000
    3.7286    3.4336    4.8187 C   0  0  0  0  0  0  0  0  0  0  0  0
    3.1540    2.1490    5.0667 O   0  0  0  0  0  0  0  0  0  0  0  0
    3.4400    1.1919    4.1698 C   0  0  0  0  0  0  0  0  0  0  0  0
    4.1541    1.3605    3.2125 O   0  0  0  0  0  0  0  0  0  0  0  0
    2.7028   -0.0967    4.4841 C   0  0  0  0  0  0  0  0  0  0  0  0
    1.3398   -0.0965    3.8190 C   0  0  0  0  0  0  0  0  0  0  0  0
    0.1718   -0.1455    4.5864 C   0  0  0  0  0  0  0  0  0  0  0  0
   -1.0657   -0.1259    3.9500 C   0  0  0  0  0  0  0  0  0  0  0  0
   -2.1803   -0.1515    4.6823 F   0  0  0  0  0  0  0  0  0  0  0  0
   -1.1682   -0.0837    2.5582 C   0  0  0  0  0  0  0  0  0  0  0  0
   -0.0000   -0.0000    1.7748 C   0  0  0  0  0  0  0  0  0  0  0  0
    1.2446    0.0000    2.4251 C   0  0  0  0  0  0  0  0  0  0  0  0
    0.0000    0.0000    0.0000 S   0  0  0  0  0  0  0  0  0  0  0  0
   -2.4223   -0.0023    1.9785 O   0  0  0  0  0  0  0  0  0  0  0  0
   -3.1119   -1.1466    1.7205 C   0  0  0  0  0  0  0  0  0  0  0  0
   -2.3588   -2.0733    1.1268 F   0  0  0  0  0  0  0  0  0  0  0  0
   -4.1207   -0.8245    0.9194 F   0  0  0  0  0  0  0  0  0  0  0  0
   -3.6101   -1.6925    2.8353 F   0  0  0  0  0  0  0  0  0  0  0  0
    3.3899    4.0826    5.6349 H   0  0  0  0  0  0  0  0  0  0  0  0
    3.3908    3.8279    3.8486 H   0  0  0  0  0  0  0  0  0  0  0  0
    4.8271    3.3733    4.8065 H   0  0  0  0  0  0  0  0  0  0  0  0
    2.5947   -0.2062    5.5708 H   0  0  0  0  0  0  0  0  0  0  0  0
    3.3137   -0.9244    4.0958 H   0  0  0  0  0  0  0  0  0  0  0  0
    0.1998   -0.1862    5.6764 H   0  0  0  0  0  0  0  0  0  0  0  0
    2.1523    0.0935    1.8264 H   0  0  0  0  0  0  0  0  0  0  0  0
   -1.5962    1.5672   -0.5597 Au  0  0  0  0  0  0  0  0  0  0  0  0
  1  2  1  0  0  0  0
  1 19  1  0  0  0  0
  3  5  1  0  0  0  0
  3  2  1  0  0  0  0
  4  3  2  0  0  0  0
  5 22  1  0  0  0  0
  6  5  1  0  0  0  0
  6  7  2  0  0  0  0
  7 24  1  0  0  0  0
  8  7  1  0  0  0  0
  8  9  1  0  0  0  0
 10  8  2  0  0  0  0
 11 12  2  0  0  0  0
 11 10  1  0  0  0  0
 12  6  1  0  0  0  0
 13 11  1  0  0  0  0
 14 10  1  0  0  0  0
 15 14  1  0  0  0  0
 15 18  1  0  0  0  0
 16 15  1  0  0  0  0
 17 15  1  0  0  0  0
 20  1  1  0  0  0  0
 21  1  1  0  0  0  0
 23  5  1  0  0  0  0
 25 12  1  0  0  0  0
 26 13  1  0  0  0  0
M  END
