313314719.xyz
 OpenBabel07262113473D
CCOC(=O)c1c(S)ccc(c1Cl)[N+](=O)[O-]
 24 24  0  0  0  0  0  0  0  0999 V2000
   -4.0086    1.2600   -0.5821 C   0  0  0  0  0  0  0  0  0  0  0  0
   -4.2333    1.3713    0.9146 C   0  0  0  0  0  0  0  0  0  0  0  0
   -2.9857    1.2583    1.6344 O   0  0  0  0  0  0  0  0  0  0  0  0
   -2.5305    0.0354    1.8804 C   0  0  0  0  0  0  0  0  0  0  0  0
   -3.0998   -0.9913    1.5908 O   0  0  0  0  0  0  0  0  0  0  0  0
   -1.1810    0.0810    2.5505 C   0  0  0  0  0  0  0  0  0  0  0  0
   -0.0000    0.0000    1.7829 C   0  0  0  0  0  0  0  0  0  0  0  0
    0.0000    0.0000    0.0000 S   0  0  0  0  0  0  0  0  0  0  0  0
    1.2437    0.0000    2.4374 C   0  0  0  0  0  0  0  0  0  0  0  0
    1.3104    0.0836    3.8216 C   0  0  0  0  0  0  0  0  0  0  0  0
    0.1405    0.1791    4.5765 C   0  0  0  0  0  0  0  0  0  0  0  0
   -1.1160    0.1670    3.9479 C   0  0  0  0  0  0  0  0  0  0  0  0
   -2.6080    0.2052    4.8362 Cl  0  0  0  0  0  0  0  0  0  0  0  0
    0.3021    0.2939    6.0369 N   0  0  0  0  0  0  0  0  0  0  0  0
    1.2499   -0.2993    6.5282 O   0  0  0  0  0  0  0  0  0  0  0  0
   -0.4896    0.9883    6.6459 O   0  0  0  0  0  0  0  0  0  0  0  0
   -4.9537    1.4462   -1.1160 H   0  0  0  0  0  0  0  0  0  0  0  0
   -3.2635    1.9957   -0.9197 H   0  0  0  0  0  0  0  0  0  0  0  0
   -3.6506    0.2558   -0.8508 H   0  0  0  0  0  0  0  0  0  0  0  0
   -4.9220    0.5953    1.2783 H   0  0  0  0  0  0  0  0  0  0  0  0
   -4.6211    2.3600    1.1949 H   0  0  0  0  0  0  0  0  0  0  0  0
   -1.1735   -1.9367   -0.4745 Au  0  0  0  0  0  0  0  0  0  0  0  0
    2.1553   -0.0767    1.8438 H   0  0  0  0  0  0  0  0  0  0  0  0
    2.2649    0.0657    4.3471 H   0  0  0  0  0  0  0  0  0  0  0  0
  1  2  1  0  0  0  0
  2 21  1  0  0  0  0
  2 20  1  0  0  0  0
  2  3  1  0  0  0  0
  3  4  1  0  0  0  0
  4  6  1  0  0  0  0
  5  4  2  0  0  0  0
  6 12  2  0  0  0  0
  7  9  2  0  0  0  0
  7  6  1  0  0  0  0
  8  7  1  0  0  0  0
  9 10  1  0  0  0  0
 10 24  1  0  0  0  0
 10 11  2  0  0  0  0
 11 14  1  0  0  0  0
 12 11  1  0  0  0  0
 12 13  1  0  0  0  0
 14 15  2  0  0  0  0
 14 16  2  0  0  0  0
 17  1  1  0  0  0  0
 18  1  1  0  0  0  0
 19  1  1  0  0  0  0
 22  8  1  0  0  0  0
 23  9  1  0  0  0  0
M  END
