313301738.xyz
 OpenBabel07262113473D
N#CCc1ccc(c(c1S)F)C(F)(F)F
 20 20  0  0  0  0  0  0  0  0999 V2000
   -4.6378   -0.0210    3.3139 N   0  0  0  0  0  0  0  0  0  0  0  0
   -3.7057    0.0131    2.6276 C   0  0  0  0  0  0  0  0  0  0  0  0
   -2.5261    0.0567    1.7660 C   0  0  0  0  0  0  0  0  0  0  0  0
   -1.2055    0.0782    2.5144 C   0  0  0  0  0  0  0  0  0  0  0  0
   -1.1529    0.1665    3.9080 C   0  0  0  0  0  0  0  0  0  0  0  0
    0.0694    0.1650    4.5808 C   0  0  0  0  0  0  0  0  0  0  0  0
    1.2689    0.0745    3.8725 C   0  0  0  0  0  0  0  0  0  0  0  0
    1.2146    0.0000    2.4789 C   0  0  0  0  0  0  0  0  0  0  0  0
    0.0000   -0.0000    1.7766 C   0  0  0  0  0  0  0  0  0  0  0  0
    0.0000    0.0000    0.0000 S   0  0  0  0  0  0  0  0  0  0  0  0
    2.3539   -0.1106    1.7991 F   0  0  0  0  0  0  0  0  0  0  0  0
    2.6040    0.0507    4.5767 C   0  0  0  0  0  0  0  0  0  0  0  0
    3.2733   -1.0860    4.3247 F   0  0  0  0  0  0  0  0  0  0  0  0
    3.3863    1.0702    4.1906 F   0  0  0  0  0  0  0  0  0  0  0  0
    2.4533    0.1409    5.9087 F   0  0  0  0  0  0  0  0  0  0  0  0
   -2.6056    0.9393    1.1097 H   0  0  0  0  0  0  0  0  0  0  0  0
   -2.5469   -0.8089    1.0830 H   0  0  0  0  0  0  0  0  0  0  0  0
   -2.0811    0.2290    4.4778 H   0  0  0  0  0  0  0  0  0  0  0  0
    0.0978    0.2282    5.6686 H   0  0  0  0  0  0  0  0  0  0  0  0
    0.6851   -2.1457   -0.4899 Au  0  0  0  0  0  0  0  0  0  0  0  0
  2  1  3  0  0  0  0
  3  4  1  0  0  0  0
  3  2  1  0  0  0  0
  4  5  2  0  0  0  0
  5 18  1  0  0  0  0
  5  6  1  0  0  0  0
  6 19  1  0  0  0  0
  7 12  1  0  0  0  0
  7  6  2  0  0  0  0
  8  7  1  0  0  0  0
  9  8  2  0  0  0  0
  9  4  1  0  0  0  0
 10  9  1  0  0  0  0
 11  8  1  0  0  0  0
 12 15  1  0  0  0  0
 13 12  1  0  0  0  0
 14 12  1  0  0  0  0
 16  3  1  0  0  0  0
 17  3  1  0  0  0  0
 20 10  1  0  0  0  0
M  END
