313319208.xyz
 OpenBabel07262113473D
CCOc1cc(S)c(cc1I)C(=O)Cl
 22 22  0  0  0  0  0  0  0  0999 V2000
    5.0225    0.0473    4.5397 C   0  0  0  0  0  0  0  0  0  0  0  0
    3.8513    0.0043    3.5816 C   0  0  0  0  0  0  0  0  0  0  0  0
    2.6575    0.1319    4.3520 O   0  0  0  0  0  0  0  0  0  0  0  0
    1.4607    0.1308    3.7544 C   0  0  0  0  0  0  0  0  0  0  0  0
    1.2747    0.0000    2.3709 C   0  0  0  0  0  0  0  0  0  0  0  0
    0.0000   -0.0000    1.7825 C   0  0  0  0  0  0  0  0  0  0  0  0
    0.0000    0.0000    0.0000 S   0  0  0  0  0  0  0  0  0  0  0  0
   -1.1427    0.1441    2.6184 C   0  0  0  0  0  0  0  0  0  0  0  0
   -0.9473    0.2742    4.0073 C   0  0  0  0  0  0  0  0  0  0  0  0
    0.3172    0.2613    4.5739 C   0  0  0  0  0  0  0  0  0  0  0  0
    0.5452    0.4384    6.6683 I   0  0  0  0  0  0  0  0  0  0  0  0
   -2.5168    0.1239    2.0677 C   0  0  0  0  0  0  0  0  0  0  0  0
   -2.8862   -0.3473    1.0399 O   0  0  0  0  0  0  0  0  0  0  0  0
   -3.7584    0.9451    3.1310 Cl  0  0  0  0  0  0  0  0  0  0  0  0
    5.9676   -0.0486    3.9842 H   0  0  0  0  0  0  0  0  0  0  0  0
    5.0351    0.9981    5.0929 H   0  0  0  0  0  0  0  0  0  0  0  0
    4.9576   -0.7751    5.2675 H   0  0  0  0  0  0  0  0  0  0  0  0
    3.8274   -0.9472    3.0210 H   0  0  0  0  0  0  0  0  0  0  0  0
    3.9046    0.8274    2.8468 H   0  0  0  0  0  0  0  0  0  0  0  0
    2.1324   -0.1100    1.7102 H   0  0  0  0  0  0  0  0  0  0  0  0
   -0.9309   -2.0425   -0.5387 Au  0  0  0  0  0  0  0  0  0  0  0  0
   -1.8201    0.3859    4.6477 H   0  0  0  0  0  0  0  0  0  0  0  0
  1 16  1  0  0  0  0
  1 17  1  0  0  0  0
  2  3  1  0  0  0  0
  2  1  1  0  0  0  0
  4  3  1  0  0  0  0
  4 10  2  0  0  0  0
  5  4  1  0  0  0  0
  6  5  2  0  0  0  0
  6  8  1  0  0  0  0
  7  6  1  0  0  0  0
  8  9  2  0  0  0  0
  9 10  1  0  0  0  0
  9 22  1  0  0  0  0
 10 11  1  0  0  0  0
 12  8  1  0  0  0  0
 12 14  1  0  0  0  0
 13 12  2  0  0  0  0
 15  1  1  0  0  0  0
 18  2  1  0  0  0  0
 19  2  1  0  0  0  0
 20  5  1  0  0  0  0
 21  7  1  0  0  0  0
M  END
