313334287.xyz
 OpenBabel07262113483D
BrCC(=O)c1ccc(c(c1[N+](=O)[O-])S)I
 20 20  0  0  0  0  0  0  0  0999 V2000
    2.1236    2.0382    6.6881 Br  0  0  0  0  0  0  0  0  0  0  0  0
    2.5578    0.1937    6.1644 C   0  0  0  0  0  0  0  0  0  0  0  0
    2.5536    0.0441    4.6488 C   0  0  0  0  0  0  0  0  0  0  0  0
    3.6054   -0.1164    4.0702 O   0  0  0  0  0  0  0  0  0  0  0  0
    1.2454    0.0785    3.9192 C   0  0  0  0  0  0  0  0  0  0  0  0
    0.0208    0.1771    4.6005 C   0  0  0  0  0  0  0  0  0  0  0  0
   -1.1870    0.1819    3.9134 C   0  0  0  0  0  0  0  0  0  0  0  0
   -1.2024    0.0885    2.5182 C   0  0  0  0  0  0  0  0  0  0  0  0
   -0.0000    0.0000    1.7787 C   0  0  0  0  0  0  0  0  0  0  0  0
    1.1996   -0.0000    2.5184 C   0  0  0  0  0  0  0  0  0  0  0  0
    2.4603   -0.1161    1.7453 N   0  0  0  0  0  0  0  0  0  0  0  0
    2.8294   -1.2481    1.4865 O   0  0  0  0  0  0  0  0  0  0  0  0
    2.9809    0.9154    1.3890 O   0  0  0  0  0  0  0  0  0  0  0  0
    0.0000    0.0000    0.0000 S   0  0  0  0  0  0  0  0  0  0  0  0
   -3.0887    0.0739    1.5629 I   0  0  0  0  0  0  0  0  0  0  0  0
    3.5726   -0.0071    6.5211 H   0  0  0  0  0  0  0  0  0  0  0  0
    1.8343   -0.4603    6.6660 H   0  0  0  0  0  0  0  0  0  0  0  0
    0.0042    0.2691    5.6857 H   0  0  0  0  0  0  0  0  0  0  0  0
   -2.1251    0.2573    4.4638 H   0  0  0  0  0  0  0  0  0  0  0  0
    0.6672   -2.1690   -0.4437 Au  0  0  0  0  0  0  0  0  0  0  0  0
  2 16  1  0  0  0  0
  2 17  1  0  0  0  0
  2  1  1  0  0  0  0
  3  2  1  0  0  0  0
  4  3  2  0  0  0  0
  5  6  1  0  0  0  0
  5  3  1  0  0  0  0
  6 18  1  0  0  0  0
  7 19  1  0  0  0  0
  7  6  2  0  0  0  0
  8  7  1  0  0  0  0
  9  8  2  0  0  0  0
  9 10  1  0  0  0  0
 10  5  2  0  0  0  0
 11 10  1  0  0  0  0
 12 11  2  0  0  0  0
 13 11  2  0  0  0  0
 14  9  1  0  0  0  0
 15  8  1  0  0  0  0
 20 14  1  0  0  0  0
M  END
