313353802.xyz
 OpenBabel07262113483D
COC(=O)Cc1cc(F)c(cc1S)Cl
 22 22  0  0  0  0  0  0  0  0999 V2000
    3.8772    1.5026   -1.1472 C   0  0  0  0  0  0  0  0  0  0  0  0
    3.5417    0.5241   -0.1644 O   0  0  0  0  0  0  0  0  0  0  0  0
    2.8607    0.9780    0.9009 C   0  0  0  0  0  0  0  0  0  0  0  0
    2.5912    2.1370    1.0837 O   0  0  0  0  0  0  0  0  0  0  0  0
    2.5399   -0.1525    1.8676 C   0  0  0  0  0  0  0  0  0  0  0  0
    1.1997   -0.0000    2.5313 C   0  0  0  0  0  0  0  0  0  0  0  0
    1.1116    0.1084    3.9212 C   0  0  0  0  0  0  0  0  0  0  0  0
   -0.1215    0.2234    4.5563 C   0  0  0  0  0  0  0  0  0  0  0  0
   -0.1659    0.3337    5.8824 F   0  0  0  0  0  0  0  0  0  0  0  0
   -1.3085    0.2210    3.8156 C   0  0  0  0  0  0  0  0  0  0  0  0
   -1.2400    0.1003    2.4292 C   0  0  0  0  0  0  0  0  0  0  0  0
   -0.0000   -0.0000    1.7778 C   0  0  0  0  0  0  0  0  0  0  0  0
    0.0000    0.0000    0.0000 S   0  0  0  0  0  0  0  0  0  0  0  0
   -2.8355    0.3575    4.6319 Cl  0  0  0  0  0  0  0  0  0  0  0  0
    2.9629    1.9446   -1.5713 H   0  0  0  0  0  0  0  0  0  0  0  0
    4.4420    0.9748   -1.9252 H   0  0  0  0  0  0  0  0  0  0  0  0
    4.4850    2.3082   -0.7090 H   0  0  0  0  0  0  0  0  0  0  0  0
    2.6042   -1.1085    1.3236 H   0  0  0  0  0  0  0  0  0  0  0  0
    3.3341   -0.1566    2.6310 H   0  0  0  0  0  0  0  0  0  0  0  0
    2.0099    0.1168    4.5412 H   0  0  0  0  0  0  0  0  0  0  0  0
   -2.1607    0.0878    1.8460 H   0  0  0  0  0  0  0  0  0  0  0  0
    0.6440   -2.1478   -0.5493 Au  0  0  0  0  0  0  0  0  0  0  0  0
  1 17  1  0  0  0  0
  1  2  1  0  0  0  0
  2  3  1  0  0  0  0
  3  4  2  0  0  0  0
  3  5  1  0  0  0  0
  5  6  1  0  0  0  0
  5 19  1  0  0  0  0
  6  7  2  0  0  0  0
  7 20  1  0  0  0  0
  7  8  1  0  0  0  0
  8  9  1  0  0  0  0
 10  8  2  0  0  0  0
 10 14  1  0  0  0  0
 11 10  1  0  0  0  0
 12 11  2  0  0  0  0
 12  6  1  0  0  0  0
 13 12  1  0  0  0  0
 15  1  1  0  0  0  0
 16  1  1  0  0  0  0
 18  5  1  0  0  0  0
 21 11  1  0  0  0  0
 22 13  1  0  0  0  0
M  END
