313387578.xyz
 OpenBabel07262113483D
COC(=O)Cc1ccc(c(c1S)C(F)F)Cl
 25 25  0  0  0  0  0  0  0  0999 V2000
    4.3943    2.3820   -0.4148 C   0  0  0  0  0  0  0  0  0  0  0  0
    4.0176    1.2271    0.3360 O   0  0  0  0  0  0  0  0  0  0  0  0
    2.8298    1.2916    0.9595 C   0  0  0  0  0  0  0  0  0  0  0  0
    2.1086    2.2558    0.9276 O   0  0  0  0  0  0  0  0  0  0  0  0
    2.5466   -0.0102    1.6927 C   0  0  0  0  0  0  0  0  0  0  0  0
    1.2500    0.0000    2.4528 C   0  0  0  0  0  0  0  0  0  0  0  0
    1.2659    0.0089    3.8504 C   0  0  0  0  0  0  0  0  0  0  0  0
    0.0880   -0.0158    4.5898 C   0  0  0  0  0  0  0  0  0  0  0  0
   -1.1428   -0.0191    3.9302 C   0  0  0  0  0  0  0  0  0  0  0  0
   -1.2102    0.0301    2.5286 C   0  0  0  0  0  0  0  0  0  0  0  0
   -0.0000    0.0000    1.7932 C   0  0  0  0  0  0  0  0  0  0  0  0
    0.0000    0.0000    0.0000 S   0  0  0  0  0  0  0  0  0  0  0  0
   -2.5337    0.0555    1.7966 C   0  0  0  0  0  0  0  0  0  0  0  0
   -3.1117   -1.1858    1.8259 F   0  0  0  0  0  0  0  0  0  0  0  0
   -3.4064    0.9277    2.3567 F   0  0  0  0  0  0  0  0  0  0  0  0
   -2.5760   -0.1111    4.9218 Cl  0  0  0  0  0  0  0  0  0  0  0  0
    3.6557    2.5897   -1.2035 H   0  0  0  0  0  0  0  0  0  0  0  0
    5.3720    2.1546   -0.8566 H   0  0  0  0  0  0  0  0  0  0  0  0
    4.4643    3.2658    0.2370 H   0  0  0  0  0  0  0  0  0  0  0  0
    2.5588   -0.8100    0.9352 H   0  0  0  0  0  0  0  0  0  0  0  0
    3.3932   -0.2037    2.3690 H   0  0  0  0  0  0  0  0  0  0  0  0
    2.2249    0.0164    4.3739 H   0  0  0  0  0  0  0  0  0  0  0  0
    0.1081   -0.0406    5.6797 H   0  0  0  0  0  0  0  0  0  0  0  0
   -0.6782   -2.1611   -0.4480 Au  0  0  0  0  0  0  0  0  0  0  0  0
   -2.3920    0.3398    0.7458 H   0  0  0  0  0  0  0  0  0  0  0  0
  1 19  1  0  0  0  0
  1  2  1  0  0  0  0
  2  3  1  0  0  0  0
  3  5  1  0  0  0  0
  4  3  2  0  0  0  0
  5 21  1  0  0  0  0
  5  6  1  0  0  0  0
  6  7  1  0  0  0  0
  7 22  1  0  0  0  0
  7  8  2  0  0  0  0
  8 23  1  0  0  0  0
  9  8  1  0  0  0  0
  9 16  1  0  0  0  0
 10  9  2  0  0  0  0
 11  6  2  0  0  0  0
 11 10  1  0  0  0  0
 12 11  1  0  0  0  0
 13 14  1  0  0  0  0
 13 15  1  0  0  0  0
 13 10  1  0  0  0  0
 17  1  1  0  0  0  0
 18  1  1  0  0  0  0
 20  5  1  0  0  0  0
 24 12  1  0  0  0  0
 25 13  1  0  0  0  0
M  END
