313365368.xyz
 OpenBabel07262113483D
COC(=O)Cc1cc(OC)cc(c1S)F
 26 26  0  0  0  0  0  0  0  0999 V2000
   -4.0873    2.5252   -0.3353 C   0  0  0  0  0  0  0  0  0  0  0  0
   -3.7261    1.2924    0.2834 O   0  0  0  0  0  0  0  0  0  0  0  0
   -2.8594    1.3750    1.3048 C   0  0  0  0  0  0  0  0  0  0  0  0
   -2.4240    2.4180    1.7283 O   0  0  0  0  0  0  0  0  0  0  0  0
   -2.5352   -0.0053    1.8531 C   0  0  0  0  0  0  0  0  0  0  0  0
   -1.1949   -0.0506    2.5359 C   0  0  0  0  0  0  0  0  0  0  0  0
   -1.1269   -0.1093    3.9224 C   0  0  0  0  0  0  0  0  0  0  0  0
    0.1103   -0.1179    4.5918 C   0  0  0  0  0  0  0  0  0  0  0  0
    0.0595   -0.1799    5.9383 O   0  0  0  0  0  0  0  0  0  0  0  0
    1.2649   -0.1761    6.6730 C   0  0  0  0  0  0  0  0  0  0  0  0
    1.2997   -0.0606    3.8541 C   0  0  0  0  0  0  0  0  0  0  0  0
    1.2173    0.0000    2.4662 C   0  0  0  0  0  0  0  0  0  0  0  0
   -0.0000   -0.0000    1.7681 C   0  0  0  0  0  0  0  0  0  0  0  0
    0.0000    0.0000    0.0000 S   0  0  0  0  0  0  0  0  0  0  0  0
    2.3628    0.0788    1.7872 F   0  0  0  0  0  0  0  0  0  0  0  0
   -4.4752    3.2404    0.4048 H   0  0  0  0  0  0  0  0  0  0  0  0
   -3.2109    2.9726   -0.8312 H   0  0  0  0  0  0  0  0  0  0  0  0
   -4.8557    2.2822   -1.0790 H   0  0  0  0  0  0  0  0  0  0  0  0
   -3.3338   -0.2648    2.5668 H   0  0  0  0  0  0  0  0  0  0  0  0
   -2.5899   -0.7184    1.0202 H   0  0  0  0  0  0  0  0  0  0  0  0
   -2.0346   -0.1431    4.5265 H   0  0  0  0  0  0  0  0  0  0  0  0
    1.8960   -1.0472    6.4232 H   0  0  0  0  0  0  0  0  0  0  0  0
    1.8445    0.7472    6.4978 H   0  0  0  0  0  0  0  0  0  0  0  0
    0.9848   -0.2282    7.7329 H   0  0  0  0  0  0  0  0  0  0  0  0
    2.2862   -0.0562    4.3137 H   0  0  0  0  0  0  0  0  0  0  0  0
   -0.0651    2.2640   -0.4845 Au  0  0  0  0  0  0  0  0  0  0  0  0
  1  2  1  0  0  0  0
  1 16  1  0  0  0  0
  2  3  1  0  0  0  0
  3  4  2  0  0  0  0
  3  5  1  0  0  0  0
  5  6  1  0  0  0  0
  5 19  1  0  0  0  0
  6  7  2  0  0  0  0
  7 21  1  0  0  0  0
  7  8  1  0  0  0  0
  8  9  1  0  0  0  0
  9 10  1  0  0  0  0
 10 24  1  0  0  0  0
 11 25  1  0  0  0  0
 11  8  2  0  0  0  0
 12 11  1  0  0  0  0
 13 12  2  0  0  0  0
 13  6  1  0  0  0  0
 14 13  1  0  0  0  0
 15 12  1  0  0  0  0
 17  1  1  0  0  0  0
 18  1  1  0  0  0  0
 20  5  1  0  0  0  0
 22 10  1  0  0  0  0
 23 10  1  0  0  0  0
 26 14  1  0  0  0  0
M  END
