313318899.xyz
 OpenBabel07262113473D
NC(=O)c1ccc(c(c1I)S)C
 20 20  0  0  0  0  0  0  0  0999 V2000
   -2.3994   -0.5789    5.8740 N   0  0  0  0  0  0  0  0  0  0  0  0
   -2.3426    0.3142    4.8401 C   0  0  0  0  0  0  0  0  0  0  0  0
   -3.1607    1.1975    4.6835 O   0  0  0  0  0  0  0  0  0  0  0  0
   -1.1236    0.1500    3.9570 C   0  0  0  0  0  0  0  0  0  0  0  0
    0.1328    0.1515    4.5761 C   0  0  0  0  0  0  0  0  0  0  0  0
    1.3027    0.0828    3.8247 C   0  0  0  0  0  0  0  0  0  0  0  0
    1.2650   -0.0000    2.4306 C   0  0  0  0  0  0  0  0  0  0  0  0
    0.0000   -0.0000    1.7773 C   0  0  0  0  0  0  0  0  0  0  0  0
   -1.1818    0.0728    2.5554 C   0  0  0  0  0  0  0  0  0  0  0  0
   -3.0883   -0.0601    1.6194 I   0  0  0  0  0  0  0  0  0  0  0  0
    0.0000    0.0000    0.0000 S   0  0  0  0  0  0  0  0  0  0  0  0
    2.5514   -0.0960    1.6545 C   0  0  0  0  0  0  0  0  0  0  0  0
   -1.8199   -1.4075    5.8865 H   0  0  0  0  0  0  0  0  0  0  0  0
   -3.2053   -0.5356    6.4877 H   0  0  0  0  0  0  0  0  0  0  0  0
    0.1859    0.2265    5.6644 H   0  0  0  0  0  0  0  0  0  0  0  0
    2.2705    0.0913    4.3315 H   0  0  0  0  0  0  0  0  0  0  0  0
   -0.8977   -2.0804   -0.4845 Au  0  0  0  0  0  0  0  0  0  0  0  0
    2.6909    0.7732    0.9934 H   0  0  0  0  0  0  0  0  0  0  0  0
    2.5496   -0.9812    0.9998 H   0  0  0  0  0  0  0  0  0  0  0  0
    3.4116   -0.1556    2.3366 H   0  0  0  0  0  0  0  0  0  0  0  0
  1 13  1  0  0  0  0
  1 14  1  0  0  0  0
  2  1  1  0  0  0  0
  3  2  2  0  0  0  0
  4  5  1  0  0  0  0
  4  2  1  0  0  0  0
  5 15  1  0  0  0  0
  6 16  1  0  0  0  0
  6  5  2  0  0  0  0
  7  6  1  0  0  0  0
  8  7  2  0  0  0  0
  8  9  1  0  0  0  0
  9  4  2  0  0  0  0
 10  9  1  0  0  0  0
 11  8  1  0  0  0  0
 12 20  1  0  0  0  0
 12  7  1  0  0  0  0
 17 11  1  0  0  0  0
 18 12  1  0  0  0  0
 19 12  1  0  0  0  0
M  END
