313317118.xyz
 OpenBabel07262113473D
OC(=O)Cc1c(C)cc(cc1S)I
 22 22  0  0  0  0  0  0  0  0999 V2000
   -4.5672    1.1317    2.1850 O   0  0  0  0  0  0  0  0  0  0  0  0
   -3.2561    1.2531    1.9120 C   0  0  0  0  0  0  0  0  0  0  0  0
   -2.7499    2.3280    1.6762 O   0  0  0  0  0  0  0  0  0  0  0  0
   -2.5448   -0.0825    1.9028 C   0  0  0  0  0  0  0  0  0  0  0  0
   -1.1864   -0.0545    2.5589 C   0  0  0  0  0  0  0  0  0  0  0  0
   -1.0973   -0.0857    3.9666 C   0  0  0  0  0  0  0  0  0  0  0  0
   -2.3418   -0.1351    4.8189 C   0  0  0  0  0  0  0  0  0  0  0  0
    0.1598   -0.0854    4.5860 C   0  0  0  0  0  0  0  0  0  0  0  0
    1.3214   -0.0505    3.8140 C   0  0  0  0  0  0  0  0  0  0  0  0
    1.2555   -0.0000    2.4249 C   0  0  0  0  0  0  0  0  0  0  0  0
    0.0000    0.0000    1.7921 C   0  0  0  0  0  0  0  0  0  0  0  0
    0.0000    0.0000    0.0000 S   0  0  0  0  0  0  0  0  0  0  0  0
    3.2177   -0.0517    4.7761 I   0  0  0  0  0  0  0  0  0  0  0  0
   -4.9525    2.0236    2.1225 H   0  0  0  0  0  0  0  0  0  0  0  0
   -3.2018   -0.8323    2.3622 H   0  0  0  0  0  0  0  0  0  0  0  0
   -2.4181   -0.3527    0.8408 H   0  0  0  0  0  0  0  0  0  0  0  0
   -2.0912   -0.0877    5.8876 H   0  0  0  0  0  0  0  0  0  0  0  0
   -2.9087   -1.0658    4.6485 H   0  0  0  0  0  0  0  0  0  0  0  0
   -3.0289    0.6965    4.5968 H   0  0  0  0  0  0  0  0  0  0  0  0
    0.2226   -0.1122    5.6749 H   0  0  0  0  0  0  0  0  0  0  0  0
    2.1574    0.0497    1.8157 H   0  0  0  0  0  0  0  0  0  0  0  0
   -0.7588    2.1533   -0.3731 Au  0  0  0  0  0  0  0  0  0  0  0  0
  2  1  1  0  0  0  0
  3  2  2  0  0  0  0
  4  2  1  0  0  0  0
  4 15  1  0  0  0  0
  4  5  1  0  0  0  0
  5  6  2  0  0  0  0
  6  8  1  0  0  0  0
  6  7  1  0  0  0  0
  7 17  1  0  0  0  0
  8 20  1  0  0  0  0
  9  8  2  0  0  0  0
  9 13  1  0  0  0  0
 10  9  1  0  0  0  0
 11 10  2  0  0  0  0
 11  5  1  0  0  0  0
 12 11  1  0  0  0  0
 14  1  1  0  0  0  0
 16  4  1  0  0  0  0
 18  7  1  0  0  0  0
 19  7  1  0  0  0  0
 21 10  1  0  0  0  0
 22 12  1  0  0  0  0
M  END
