313313017.xyz
 OpenBabel07262113473D
COc1c(ccc(c1I)S)C(=O)Cl
 19 19  0  0  0  0  0  0  0  0999 V2000
    2.1476   -1.1910    5.6495 C   0  0  0  0  0  0  0  0  0  0  0  0
    1.8963    0.0093    4.9240 O   0  0  0  0  0  0  0  0  0  0  0  0
    0.8205    0.0252    4.1003 C   0  0  0  0  0  0  0  0  0  0  0  0
   -0.5017    0.0727    4.5908 C   0  0  0  0  0  0  0  0  0  0  0  0
   -1.5564    0.0221    3.6563 C   0  0  0  0  0  0  0  0  0  0  0  0
   -1.3160   -0.0061    2.3002 C   0  0  0  0  0  0  0  0  0  0  0  0
   -0.0000   -0.0000    1.7638 C   0  0  0  0  0  0  0  0  0  0  0  0
    1.0553    0.0000    2.7074 C   0  0  0  0  0  0  0  0  0  0  0  0
    3.1570   -0.0421    2.2410 I   0  0  0  0  0  0  0  0  0  0  0  0
    0.0000    0.0000    0.0000 S   0  0  0  0  0  0  0  0  0  0  0  0
   -0.9268    0.1910    6.0062 C   0  0  0  0  0  0  0  0  0  0  0  0
   -1.9861   -0.1581    6.4283 O   0  0  0  0  0  0  0  0  0  0  0  0
    0.2118    1.0551    7.1122 Cl  0  0  0  0  0  0  0  0  0  0  0  0
    3.0562   -1.0122    6.2382 H   0  0  0  0  0  0  0  0  0  0  0  0
    2.3155   -2.0342    4.9581 H   0  0  0  0  0  0  0  0  0  0  0  0
    1.3214   -1.4323    6.3355 H   0  0  0  0  0  0  0  0  0  0  0  0
   -2.5799    0.0297    4.0328 H   0  0  0  0  0  0  0  0  0  0  0  0
   -2.1547   -0.0242    1.6017 H   0  0  0  0  0  0  0  0  0  0  0  0
    2.2678   -0.1010   -0.5278 Au  0  0  0  0  0  0  0  0  0  0  0  0
  1 14  1  0  0  0  0
  1 16  1  0  0  0  0
  2  1  1  0  0  0  0
  3  4  1  0  0  0  0
  3  2  1  0  0  0  0
  4 11  1  0  0  0  0
  5 17  1  0  0  0  0
  5  4  2  0  0  0  0
  6  5  1  0  0  0  0
  7  6  2  0  0  0  0
  7  8  1  0  0  0  0
  8  3  2  0  0  0  0
  9  8  1  0  0  0  0
 10  7  1  0  0  0  0
 11 12  2  0  0  0  0
 11 13  1  0  0  0  0
 15  1  1  0  0  0  0
 18  6  1  0  0  0  0
 19 10  1  0  0  0  0
M  END
