313374815.xyz
 OpenBabel07262113483D
CCOc1cc(C(=O)OC)c(cc1F)S
 26 26  0  0  0  0  0  0  0  0999 V2000
    0.1213   -0.7393    8.2077 C   0  0  0  0  0  0  0  0  0  0  0  0
    0.6542   -0.5362    6.8049 C   0  0  0  0  0  0  0  0  0  0  0  0
   -0.4551   -0.5054    5.9162 O   0  0  0  0  0  0  0  0  0  0  0  0
   -0.2350   -0.3390    4.5987 C   0  0  0  0  0  0  0  0  0  0  0  0
    1.0136   -0.1770    3.9949 C   0  0  0  0  0  0  0  0  0  0  0  0
    1.1492    0.0000    2.6054 C   0  0  0  0  0  0  0  0  0  0  0  0
    2.5271    0.2193    2.0731 C   0  0  0  0  0  0  0  0  0  0  0  0
    2.8248    0.8686    1.0982 O   0  0  0  0  0  0  0  0  0  0  0  0
    3.4588   -0.3770    2.8489 O   0  0  0  0  0  0  0  0  0  0  0  0
    4.8149   -0.1773    2.4563 C   0  0  0  0  0  0  0  0  0  0  0  0
   -0.0000    0.0000    1.7802 C   0  0  0  0  0  0  0  0  0  0  0  0
   -1.2577   -0.1617    2.3955 C   0  0  0  0  0  0  0  0  0  0  0  0
   -1.3703   -0.3274    3.7630 C   0  0  0  0  0  0  0  0  0  0  0  0
   -2.5731   -0.4774    4.3209 F   0  0  0  0  0  0  0  0  0  0  0  0
    0.0000    0.0000    0.0000 S   0  0  0  0  0  0  0  0  0  0  0  0
   -0.5565    0.0813    8.4867 H   0  0  0  0  0  0  0  0  0  0  0  0
    0.9524   -0.7685    8.9286 H   0  0  0  0  0  0  0  0  0  0  0  0
   -0.4362   -1.6854    8.2765 H   0  0  0  0  0  0  0  0  0  0  0  0
    1.2193    0.4114    6.7280 H   0  0  0  0  0  0  0  0  0  0  0  0
    1.3391   -1.3553    6.5173 H   0  0  0  0  0  0  0  0  0  0  0  0
    1.9181   -0.1877    4.5973 H   0  0  0  0  0  0  0  0  0  0  0  0
    5.4271   -0.7256    3.1826 H   0  0  0  0  0  0  0  0  0  0  0  0
    5.0727    0.8927    2.4665 H   0  0  0  0  0  0  0  0  0  0  0  0
    4.9867   -0.5640    1.4408 H   0  0  0  0  0  0  0  0  0  0  0  0
   -2.1637   -0.1618    1.7887 H   0  0  0  0  0  0  0  0  0  0  0  0
    0.6101    2.1615   -0.5355 Au  0  0  0  0  0  0  0  0  0  0  0  0
  1 18  1  0  0  0  0
  1 16  1  0  0  0  0
  1 17  1  0  0  0  0
  2  1  1  0  0  0  0
  3  2  1  0  0  0  0
  4  3  1  0  0  0  0
  5 21  1  0  0  0  0
  5  4  1  0  0  0  0
  6  5  2  0  0  0  0
  7  6  1  0  0  0  0
  7  9  1  0  0  0  0
  8  7  2  0  0  0  0
 10 23  1  0  0  0  0
 10  9  1  0  0  0  0
 10 22  1  0  0  0  0
 11 12  2  0  0  0  0
 11  6  1  0  0  0  0
 12 13  1  0  0  0  0
 13 14  1  0  0  0  0
 13  4  2  0  0  0  0
 15 11  1  0  0  0  0
 19  2  1  0  0  0  0
 20  2  1  0  0  0  0
 24 10  1  0  0  0  0
 25 12  1  0  0  0  0
 26 15  1  0  0  0  0
M  END
