313316340.xyz
 OpenBabel07262113473D
Sc1cc(C)c(c(c1)C(=O)N)I
 20 20  0  0  0  0  0  0  0  0999 V2000
    0.0000    0.0000    0.0000 S   0  0  0  0  0  0  0  0  0  0  0  0
   -0.0000    0.0000    1.7837 C   0  0  0  0  0  0  0  0  0  0  0  0
   -1.2125    0.0764    2.4823 C   0  0  0  0  0  0  0  0  0  0  0  0
   -1.2588    0.1374    3.8809 C   0  0  0  0  0  0  0  0  0  0  0  0
   -2.5969    0.1787    4.5704 C   0  0  0  0  0  0  0  0  0  0  0  0
   -0.0306    0.1409    4.5767 C   0  0  0  0  0  0  0  0  0  0  0  0
    1.2019    0.0898    3.9009 C   0  0  0  0  0  0  0  0  0  0  0  0
    1.1980    0.0000    2.5029 C   0  0  0  0  0  0  0  0  0  0  0  0
    2.5866    0.0673    4.5229 C   0  0  0  0  0  0  0  0  0  0  0  0
    3.4135   -0.7488    4.1602 O   0  0  0  0  0  0  0  0  0  0  0  0
    2.8645    1.0571    5.4136 N   0  0  0  0  0  0  0  0  0  0  0  0
   -0.1109    0.1111    6.7194 I   0  0  0  0  0  0  0  0  0  0  0  0
    0.2464   -2.2353   -0.4956 Au  0  0  0  0  0  0  0  0  0  0  0  0
   -2.1470    0.0729    1.9181 H   0  0  0  0  0  0  0  0  0  0  0  0
   -2.6886    1.0649    5.2180 H   0  0  0  0  0  0  0  0  0  0  0  0
   -2.7419   -0.7026    5.2155 H   0  0  0  0  0  0  0  0  0  0  0  0
   -3.4106    0.2028    3.8326 H   0  0  0  0  0  0  0  0  0  0  0  0
    2.1532   -0.0789    1.9828 H   0  0  0  0  0  0  0  0  0  0  0  0
    2.1472    1.6726    5.7728 H   0  0  0  0  0  0  0  0  0  0  0  0
    3.7576    1.0199    5.8917 H   0  0  0  0  0  0  0  0  0  0  0  0
  1  2  1  0  0  0  0
  2  3  2  0  0  0  0
  2  8  1  0  0  0  0
  3  4  1  0  0  0  0
  4  5  1  0  0  0  0
  4  6  2  0  0  0  0
  5 16  1  0  0  0  0
  5 15  1  0  0  0  0
  6 12  1  0  0  0  0
  7  9  1  0  0  0  0
  7  6  1  0  0  0  0
  8  7  2  0  0  0  0
  9 11  1  0  0  0  0
 10  9  2  0  0  0  0
 11 19  1  0  0  0  0
 11 20  1  0  0  0  0
 13  1  1  0  0  0  0
 14  3  1  0  0  0  0
 17  5  1  0  0  0  0
 18  8  1  0  0  0  0
M  END
