313325117.xyz
 OpenBabel07262113473D
CCOc1cc(S)c(cc1C)C(=O)Cl
 25 25  0  0  0  0  0  0  0  0999 V2000
   -4.9573   -0.6855    4.5722 C   0  0  0  0  0  0  0  0  0  0  0  0
   -3.8027   -0.4928    3.6117 C   0  0  0  0  0  0  0  0  0  0  0  0
   -2.5996   -0.4699    4.3733 O   0  0  0  0  0  0  0  0  0  0  0  0
   -1.4121   -0.3150    3.7560 C   0  0  0  0  0  0  0  0  0  0  0  0
   -1.2646   -0.1607    2.3737 C   0  0  0  0  0  0  0  0  0  0  0  0
    0.0000    0.0000    1.7828 C   0  0  0  0  0  0  0  0  0  0  0  0
    0.0000    0.0000    0.0000 S   0  0  0  0  0  0  0  0  0  0  0  0
    1.1502    0.0000    2.6186 C   0  0  0  0  0  0  0  0  0  0  0  0
    0.9685   -0.1565    4.0079 C   0  0  0  0  0  0  0  0  0  0  0  0
   -0.2774   -0.3070    4.6013 C   0  0  0  0  0  0  0  0  0  0  0  0
   -0.4524   -0.4601    6.0850 C   0  0  0  0  0  0  0  0  0  0  0  0
    2.5060    0.1969    2.0645 C   0  0  0  0  0  0  0  0  0  0  0  0
    2.8159    0.7050    1.0348 O   0  0  0  0  0  0  0  0  0  0  0  0
    3.8514   -0.4512    3.1336 Cl  0  0  0  0  0  0  0  0  0  0  0  0
   -5.9091   -0.7084    4.0202 H   0  0  0  0  0  0  0  0  0  0  0  0
   -4.9965    0.1371    5.3021 H   0  0  0  0  0  0  0  0  0  0  0  0
   -4.8500   -1.6320    5.1231 H   0  0  0  0  0  0  0  0  0  0  0  0
   -3.7578   -1.3136    2.8735 H   0  0  0  0  0  0  0  0  0  0  0  0
   -3.9046    0.4544    3.0519 H   0  0  0  0  0  0  0  0  0  0  0  0
   -2.1304   -0.1592    1.7149 H   0  0  0  0  0  0  0  0  0  0  0  0
    0.6465    2.1475   -0.5443 Au  0  0  0  0  0  0  0  0  0  0  0  0
    1.8526   -0.1561    4.6444 H   0  0  0  0  0  0  0  0  0  0  0  0
   -1.0856    0.3444    6.4931 H   0  0  0  0  0  0  0  0  0  0  0  0
   -0.9633   -1.4065    6.3255 H   0  0  0  0  0  0  0  0  0  0  0  0
    0.5168   -0.4418    6.6021 H   0  0  0  0  0  0  0  0  0  0  0  0
  1 17  1  0  0  0  0
  1 16  1  0  0  0  0
  2  3  1  0  0  0  0
  2  1  1  0  0  0  0
  4  3  1  0  0  0  0
  4 10  2  0  0  0  0
  5  4  1  0  0  0  0
  6  5  2  0  0  0  0
  6  8  1  0  0  0  0
  7  6  1  0  0  0  0
  8  9  2  0  0  0  0
  9 10  1  0  0  0  0
  9 22  1  0  0  0  0
 10 11  1  0  0  0  0
 11 24  1  0  0  0  0
 11 23  1  0  0  0  0
 11 25  1  0  0  0  0
 12  8  1  0  0  0  0
 12 14  1  0  0  0  0
 13 12  2  0  0  0  0
 15  1  1  0  0  0  0
 18  2  1  0  0  0  0
 19  2  1  0  0  0  0
 20  5  1  0  0  0  0
 21  7  1  0  0  0  0
M  END
