313317784.xyz
 OpenBabel07262113473D
CCOC(=O)c1c(Cl)ccc(c1S)C(F)(F)F
 25 25  0  0  0  0  0  0  0  0999 V2000
   -4.1717    2.6665    0.0279 C   0  0  0  0  0  0  0  0  0  0  0  0
   -4.0434    1.2223    0.4577 C   0  0  0  0  0  0  0  0  0  0  0  0
   -2.8906    1.1203    1.3129 O   0  0  0  0  0  0  0  0  0  0  0  0
   -2.5219   -0.1150    1.6739 C   0  0  0  0  0  0  0  0  0  0  0  0
   -3.1321   -1.1177    1.4168 O   0  0  0  0  0  0  0  0  0  0  0  0
   -1.2365   -0.0785    2.4619 C   0  0  0  0  0  0  0  0  0  0  0  0
   -1.2671   -0.1431    3.8599 C   0  0  0  0  0  0  0  0  0  0  0  0
   -2.7966   -0.2065    4.6939 Cl  0  0  0  0  0  0  0  0  0  0  0  0
   -0.0866   -0.1447    4.6022 C   0  0  0  0  0  0  0  0  0  0  0  0
    1.1359   -0.0757    3.9375 C   0  0  0  0  0  0  0  0  0  0  0  0
    1.1954   -0.0000    2.5434 C   0  0  0  0  0  0  0  0  0  0  0  0
   -0.0000   -0.0000    1.7907 C   0  0  0  0  0  0  0  0  0  0  0  0
    0.0000    0.0000    0.0000 S   0  0  0  0  0  0  0  0  0  0  0  0
    2.5564    0.0944    1.8809 C   0  0  0  0  0  0  0  0  0  0  0  0
    2.6968    1.2374    1.1862 F   0  0  0  0  0  0  0  0  0  0  0  0
    2.7873   -0.9248    1.0443 F   0  0  0  0  0  0  0  0  0  0  0  0
    3.5432    0.0790    2.7984 F   0  0  0  0  0  0  0  0  0  0  0  0
   -3.2813    2.9825   -0.5396 H   0  0  0  0  0  0  0  0  0  0  0  0
   -4.2807    3.3300    0.8991 H   0  0  0  0  0  0  0  0  0  0  0  0
   -5.0536    2.7920   -0.6187 H   0  0  0  0  0  0  0  0  0  0  0  0
   -3.9035    0.5439   -0.3982 H   0  0  0  0  0  0  0  0  0  0  0  0
   -4.9277    0.8727    1.0142 H   0  0  0  0  0  0  0  0  0  0  0  0
   -0.1313   -0.1977    5.6903 H   0  0  0  0  0  0  0  0  0  0  0  0
    2.0613   -0.0775    4.5125 H   0  0  0  0  0  0  0  0  0  0  0  0
   -0.2541    2.2567   -0.4191 Au  0  0  0  0  0  0  0  0  0  0  0  0
  1  2  1  0  0  0  0
  1 19  1  0  0  0  0
  2 22  1  0  0  0  0
  2  3  1  0  0  0  0
  3  4  1  0  0  0  0
  4  6  1  0  0  0  0
  5  4  2  0  0  0  0
  6  7  1  0  0  0  0
  7  9  2  0  0  0  0
  7  8  1  0  0  0  0
  9 23  1  0  0  0  0
 10 24  1  0  0  0  0
 10  9  1  0  0  0  0
 11 10  2  0  0  0  0
 12  6  2  0  0  0  0
 12 11  1  0  0  0  0
 13 12  1  0  0  0  0
 14 11  1  0  0  0  0
 14 17  1  0  0  0  0
 15 14  1  0  0  0  0
 16 14  1  0  0  0  0
 18  1  1  0  0  0  0
 20  1  1  0  0  0  0
 21  2  1  0  0  0  0
 25 13  1  0  0  0  0
M  END
