313374570.xyz
 OpenBabel07262113483D
CCOc1c(S)ccc(c1C(=O)OC)C(F)(F)F
 29 29  0  0  0  0  0  0  0  0999 V2000
   -4.3746   -0.7068    0.8757 C   0  0  0  0  0  0  0  0  0  0  0  0
   -3.0027   -1.0289    1.4231 C   0  0  0  0  0  0  0  0  0  0  0  0
   -2.4139    0.2042    1.8669 O   0  0  0  0  0  0  0  0  0  0  0  0
   -1.2143    0.1308    2.4936 C   0  0  0  0  0  0  0  0  0  0  0  0
    0.0000    0.0000    1.7809 C   0  0  0  0  0  0  0  0  0  0  0  0
    0.0000    0.0000    0.0000 S   0  0  0  0  0  0  0  0  0  0  0  0
    1.2090    0.0000    2.4934 C   0  0  0  0  0  0  0  0  0  0  0  0
    1.2237    0.1198    3.8791 C   0  0  0  0  0  0  0  0  0  0  0  0
    0.0246    0.2702    4.5833 C   0  0  0  0  0  0  0  0  0  0  0  0
   -1.1966    0.2721    3.8927 C   0  0  0  0  0  0  0  0  0  0  0  0
   -2.5112    0.4984    4.5912 C   0  0  0  0  0  0  0  0  0  0  0  0
   -2.8145    1.5201    5.1484 O   0  0  0  0  0  0  0  0  0  0  0  0
   -3.3063   -0.5800    4.5112 O   0  0  0  0  0  0  0  0  0  0  0  0
   -4.5955   -0.4447    5.1131 C   0  0  0  0  0  0  0  0  0  0  0  0
    0.0686    0.4351    6.0874 C   0  0  0  0  0  0  0  0  0  0  0  0
   -0.8988   -0.2822    6.6913 F   0  0  0  0  0  0  0  0  0  0  0  0
    1.2434    0.0146    6.5907 F   0  0  0  0  0  0  0  0  0  0  0  0
   -0.0854    1.7121    6.4579 F   0  0  0  0  0  0  0  0  0  0  0  0
   -4.2966    0.0018    0.0373 H   0  0  0  0  0  0  0  0  0  0  0  0
   -4.8655   -1.6239    0.5149 H   0  0  0  0  0  0  0  0  0  0  0  0
   -5.0060   -0.2533    1.6550 H   0  0  0  0  0  0  0  0  0  0  0  0
   -2.3629   -1.4825    0.6487 H   0  0  0  0  0  0  0  0  0  0  0  0
   -3.0641   -1.7170    2.2819 H   0  0  0  0  0  0  0  0  0  0  0  0
    0.4041   -2.2110   -0.5082 Au  0  0  0  0  0  0  0  0  0  0  0  0
    2.1438   -0.0926    1.9383 H   0  0  0  0  0  0  0  0  0  0  0  0
    2.1688    0.1046    4.4215 H   0  0  0  0  0  0  0  0  0  0  0  0
   -5.1047   -1.4037    4.9607 H   0  0  0  0  0  0  0  0  0  0  0  0
   -4.4988   -0.2259    6.1866 H   0  0  0  0  0  0  0  0  0  0  0  0
   -5.1598    0.3712    4.6375 H   0  0  0  0  0  0  0  0  0  0  0  0
  1  2  1  0  0  0  0
  1 21  1  0  0  0  0
  2  3  1  0  0  0  0
  2 23  1  0  0  0  0
  3  4  1  0  0  0  0
  4 10  2  0  0  0  0
  5  7  2  0  0  0  0
  5  4  1  0  0  0  0
  6  5  1  0  0  0  0
  7  8  1  0  0  0  0
  8 26  1  0  0  0  0
  8  9  2  0  0  0  0
  9 15  1  0  0  0  0
 10  9  1  0  0  0  0
 10 11  1  0  0  0  0
 11 12  2  0  0  0  0
 13 11  1  0  0  0  0
 13 14  1  0  0  0  0
 14 28  1  0  0  0  0
 15 18  1  0  0  0  0
 15 17  1  0  0  0  0
 15 16  1  0  0  0  0
 19  1  1  0  0  0  0
 20  1  1  0  0  0  0
 22  2  1  0  0  0  0
 24  6  1  0  0  0  0
 25  7  1  0  0  0  0
 27 14  1  0  0  0  0
 29 14  1  0  0  0  0
M  END
