313369626.xyz
 OpenBabel07262113483D
O=Cc1cc(S)cc(c1C(F)F)C=O
 20 20  0  0  0  0  0  0  0  0999 V2000
   -3.7653    0.0274    3.5911 O   0  0  0  0  0  0  0  0  0  0  0  0
   -2.7975    0.0283    4.3161 C   0  0  0  0  0  0  0  0  0  0  0  0
   -1.3932    0.0186    3.7819 C   0  0  0  0  0  0  0  0  0  0  0  0
   -1.2622    0.0086    2.3913 C   0  0  0  0  0  0  0  0  0  0  0  0
   -0.0000   -0.0000    1.7726 C   0  0  0  0  0  0  0  0  0  0  0  0
    0.0000    0.0000    0.0000 S   0  0  0  0  0  0  0  0  0  0  0  0
    1.1303   -0.0000    2.5930 C   0  0  0  0  0  0  0  0  0  0  0  0
    1.0211    0.0068    3.9919 C   0  0  0  0  0  0  0  0  0  0  0  0
   -0.2466    0.0170    4.6097 C   0  0  0  0  0  0  0  0  0  0  0  0
   -0.4014    0.0243    6.1111 C   0  0  0  0  0  0  0  0  0  0  0  0
   -1.1109   -1.0670    6.5226 F   0  0  0  0  0  0  0  0  0  0  0  0
   -1.0978    1.1275    6.5132 F   0  0  0  0  0  0  0  0  0  0  0  0
    2.3165    0.0032    4.7365 C   0  0  0  0  0  0  0  0  0  0  0  0
    3.3960   -0.0084    4.1914 O   0  0  0  0  0  0  0  0  0  0  0  0
   -2.9121    0.0367    5.4191 H   0  0  0  0  0  0  0  0  0  0  0  0
   -2.1833    0.0072    1.8040 H   0  0  0  0  0  0  0  0  0  0  0  0
    2.2101   -0.1351   -0.6193 Au  0  0  0  0  0  0  0  0  0  0  0  0
    2.1364   -0.0061    2.1715 H   0  0  0  0  0  0  0  0  0  0  0  0
    0.5508    0.0209    6.6569 H   0  0  0  0  0  0  0  0  0  0  0  0
    2.2618    0.0120    5.8495 H   0  0  0  0  0  0  0  0  0  0  0  0
  1  2  2  0  0  0  0
  2 15  1  0  0  0  0
  3  2  1  0  0  0  0
  3  9  2  0  0  0  0
  4  3  1  0  0  0  0
  5  4  2  0  0  0  0
  5  7  1  0  0  0  0
  6  5  1  0  0  0  0
  7  8  2  0  0  0  0
  8  9  1  0  0  0  0
  8 13  1  0  0  0  0
  9 10  1  0  0  0  0
 10 12  1  0  0  0  0
 10 11  1  0  0  0  0
 10 19  1  0  0  0  0
 13 20  1  0  0  0  0
 14 13  2  0  0  0  0
 16  4  1  0  0  0  0
 17  6  1  0  0  0  0
 18  7  1  0  0  0  0
M  END
