313313514.xyz
 OpenBabel07262113473D
COc1cc(F)c(cc1C#N)S
 18 18  0  0  0  0  0  0  0  0999 V2000
   -1.0476   -0.4009    6.7263 C   0  0  0  0  0  0  0  0  0  0  0  0
    0.1219   -0.3015    5.9360 O   0  0  0  0  0  0  0  0  0  0  0  0
    0.0182   -0.2058    4.6045 C   0  0  0  0  0  0  0  0  0  0  0  0
   -1.1963   -0.1897    3.9058 C   0  0  0  0  0  0  0  0  0  0  0  0
   -1.1859   -0.0959    2.5181 C   0  0  0  0  0  0  0  0  0  0  0  0
   -2.3590   -0.0671    1.8904 F   0  0  0  0  0  0  0  0  0  0  0  0
   -0.0000    0.0000    1.7697 C   0  0  0  0  0  0  0  0  0  0  0  0
    1.2063    0.0000    2.4849 C   0  0  0  0  0  0  0  0  0  0  0  0
    1.2363   -0.1098    3.8803 C   0  0  0  0  0  0  0  0  0  0  0  0
    2.4832   -0.1179    4.5830 C   0  0  0  0  0  0  0  0  0  0  0  0
    3.5074   -0.1215    5.1293 N   0  0  0  0  0  0  0  0  0  0  0  0
    0.0000    0.0000    0.0000 S   0  0  0  0  0  0  0  0  0  0  0  0
   -1.6291   -1.3031    6.4711 H   0  0  0  0  0  0  0  0  0  0  0  0
   -0.7094   -0.4704    7.7673 H   0  0  0  0  0  0  0  0  0  0  0  0
   -1.6877    0.4903    6.6100 H   0  0  0  0  0  0  0  0  0  0  0  0
   -2.1585   -0.2527    4.4105 H   0  0  0  0  0  0  0  0  0  0  0  0
    2.1436    0.0845    1.9340 H   0  0  0  0  0  0  0  0  0  0  0  0
   -0.8540    2.0773   -0.5225 Au  0  0  0  0  0  0  0  0  0  0  0  0
  1 14  1  0  0  0  0
  2  1  1  0  0  0  0
  3  2  1  0  0  0  0
  4 16  1  0  0  0  0
  4  3  1  0  0  0  0
  5  4  2  0  0  0  0
  6  5  1  0  0  0  0
  7  8  2  0  0  0  0
  7  5  1  0  0  0  0
  8  9  1  0  0  0  0
  9 10  1  0  0  0  0
  9  3  2  0  0  0  0
 10 11  3  0  0  0  0
 12  7  1  0  0  0  0
 13  1  1  0  0  0  0
 15  1  1  0  0  0  0
 17  8  1  0  0  0  0
 18 12  1  0  0  0  0
M  END
