313301476.xyz
 OpenBabel07262113473D
ClC(=O)c1cc(F)c(c(c1)S)C(F)(F)F
 18 18  0  0  0  0  0  0  0  0999 V2000
    2.7998    0.1405    6.1937 Cl  0  0  0  0  0  0  0  0  0  0  0  0
    2.7298    0.0546    4.3938 C   0  0  0  0  0  0  0  0  0  0  0  0
    3.7339   -0.0066    3.7604 O   0  0  0  0  0  0  0  0  0  0  0  0
    1.3523    0.0663    3.8191 C   0  0  0  0  0  0  0  0  0  0  0  0
    0.1949    0.1347    4.5943 C   0  0  0  0  0  0  0  0  0  0  0  0
   -1.0479    0.1410    3.9652 C   0  0  0  0  0  0  0  0  0  0  0  0
   -2.1131    0.2086    4.7629 F   0  0  0  0  0  0  0  0  0  0  0  0
   -1.1858    0.0810    2.5698 C   0  0  0  0  0  0  0  0  0  0  0  0
    0.0000   -0.0000    1.7919 C   0  0  0  0  0  0  0  0  0  0  0  0
    1.2483    0.0000    2.4232 C   0  0  0  0  0  0  0  0  0  0  0  0
    0.0000    0.0000    0.0000 S   0  0  0  0  0  0  0  0  0  0  0  0
   -2.5538    0.1000    1.8985 C   0  0  0  0  0  0  0  0  0  0  0  0
   -2.6580    1.1273    1.0468 F   0  0  0  0  0  0  0  0  0  0  0  0
   -3.5610    0.2105    2.7699 F   0  0  0  0  0  0  0  0  0  0  0  0
   -2.7634   -1.0361    1.2077 F   0  0  0  0  0  0  0  0  0  0  0  0
    0.2345    0.1856    5.6810 H   0  0  0  0  0  0  0  0  0  0  0  0
    2.1535   -0.0571    1.8196 H   0  0  0  0  0  0  0  0  0  0  0  0
   -0.1619   -2.2516   -0.4628 Au  0  0  0  0  0  0  0  0  0  0  0  0
  2  1  1  0  0  0  0
  3  2  2  0  0  0  0
  4  2  1  0  0  0  0
  4  5  2  0  0  0  0
  5 16  1  0  0  0  0
  6  5  1  0  0  0  0
  6  7  1  0  0  0  0
  8  6  2  0  0  0  0
  9 10  2  0  0  0  0
  9  8  1  0  0  0  0
 10  4  1  0  0  0  0
 11  9  1  0  0  0  0
 12  8  1  0  0  0  0
 12 14  1  0  0  0  0
 13 12  1  0  0  0  0
 15 12  1  0  0  0  0
 17 10  1  0  0  0  0
 18 11  1  0  0  0  0
M  END
