313312159.xyz
 OpenBabel07262113473D
CCOC(=O)Cc1c(Cl)ccc(c1S)C
 28 28  0  0  0  0  0  0  0  0999 V2000
    3.0236    1.9549   -2.1370 C   0  0  0  0  0  0  0  0  0  0  0  0
    4.0705    1.8107   -1.0463 C   0  0  0  0  0  0  0  0  0  0  0  0
    3.7151    0.7657   -0.1242 O   0  0  0  0  0  0  0  0  0  0  0  0
    2.8466    1.0850    0.8497 C   0  0  0  0  0  0  0  0  0  0  0  0
    2.4113    2.1938    1.0349 O   0  0  0  0  0  0  0  0  0  0  0  0
    2.5319   -0.1337    1.6992 C   0  0  0  0  0  0  0  0  0  0  0  0
    1.2448   -0.0000    2.4633 C   0  0  0  0  0  0  0  0  0  0  0  0
    1.2201    0.1204    3.8594 C   0  0  0  0  0  0  0  0  0  0  0  0
    2.7078    0.1624    4.7897 Cl  0  0  0  0  0  0  0  0  0  0  0  0
    0.0182    0.2137    4.5644 C   0  0  0  0  0  0  0  0  0  0  0  0
   -1.1893    0.1868    3.8733 C   0  0  0  0  0  0  0  0  0  0  0  0
   -1.2301    0.0822    2.4777 C   0  0  0  0  0  0  0  0  0  0  0  0
   -0.0000   -0.0000    1.7829 C   0  0  0  0  0  0  0  0  0  0  0  0
    0.0000    0.0000    0.0000 S   0  0  0  0  0  0  0  0  0  0  0  0
   -2.5499    0.0353    1.7610 C   0  0  0  0  0  0  0  0  0  0  0  0
    2.8750    0.9999   -2.6639 H   0  0  0  0  0  0  0  0  0  0  0  0
    3.3439    2.7123   -2.8701 H   0  0  0  0  0  0  0  0  0  0  0  0
    2.0619    2.2717   -1.7086 H   0  0  0  0  0  0  0  0  0  0  0  0
    5.0428    1.5040   -1.4575 H   0  0  0  0  0  0  0  0  0  0  0  0
    4.1938    2.7522   -0.4910 H   0  0  0  0  0  0  0  0  0  0  0  0
    3.3737   -0.2713    2.3927 H   0  0  0  0  0  0  0  0  0  0  0  0
    2.5067   -1.0108    1.0369 H   0  0  0  0  0  0  0  0  0  0  0  0
    0.0401    0.3072    5.6507 H   0  0  0  0  0  0  0  0  0  0  0  0
   -2.1258    0.2554    4.4318 H   0  0  0  0  0  0  0  0  0  0  0  0
   -0.2844   -2.2323   -0.5024 Au  0  0  0  0  0  0  0  0  0  0  0  0
   -3.3836    0.1748    2.4636 H   0  0  0  0  0  0  0  0  0  0  0  0
   -2.6090    0.8044    0.9767 H   0  0  0  0  0  0  0  0  0  0  0  0
   -2.6838   -0.9335    1.2495 H   0  0  0  0  0  0  0  0  0  0  0  0
  1 18  1  0  0  0  0
  1  2  1  0  0  0  0
  2 20  1  0  0  0  0
  2  3  1  0  0  0  0
  3  4  1  0  0  0  0
  4  5  2  0  0  0  0
  4  6  1  0  0  0  0
  6 21  1  0  0  0  0
  6  7  1  0  0  0  0
  7  8  1  0  0  0  0
  8 10  2  0  0  0  0
  8  9  1  0  0  0  0
 10 23  1  0  0  0  0
 11 24  1  0  0  0  0
 11 10  1  0  0  0  0
 12 11  2  0  0  0  0
 13  7  2  0  0  0  0
 13 12  1  0  0  0  0
 14 13  1  0  0  0  0
 15 26  1  0  0  0  0
 15 12  1  0  0  0  0
 16  1  1  0  0  0  0
 17  1  1  0  0  0  0
 19  2  1  0  0  0  0
 22  6  1  0  0  0  0
 25 14  1  0  0  0  0
 27 15  1  0  0  0  0
 28 15  1  0  0  0  0
M  END
