313311229.xyz
 OpenBabel07262113473D
CC(=O)c1ccc(c(c1C(F)(F)F)I)S
 21 21  0  0  0  0  0  0  0  0999 V2000
    0.0796    1.8350    6.6200 C   0  0  0  0  0  0  0  0  0  0  0  0
    0.5751    0.5231    6.0462 C   0  0  0  0  0  0  0  0  0  0  0  0
    1.3220   -0.2074    6.6541 O   0  0  0  0  0  0  0  0  0  0  0  0
    0.2728    0.2507    4.5809 C   0  0  0  0  0  0  0  0  0  0  0  0
    1.4020    0.1463    3.7593 C   0  0  0  0  0  0  0  0  0  0  0  0
    1.2676   -0.0000    2.3880 C   0  0  0  0  0  0  0  0  0  0  0  0
   -0.0000   -0.0000    1.7757 C   0  0  0  0  0  0  0  0  0  0  0  0
   -1.1459    0.0802    2.6048 C   0  0  0  0  0  0  0  0  0  0  0  0
   -1.0118    0.1478    4.0092 C   0  0  0  0  0  0  0  0  0  0  0  0
   -2.2224    0.0553    4.9297 C   0  0  0  0  0  0  0  0  0  0  0  0
   -1.8538   -0.1751    6.2049 F   0  0  0  0  0  0  0  0  0  0  0  0
   -3.0360   -0.9519    4.5945 F   0  0  0  0  0  0  0  0  0  0  0  0
   -2.9466    1.1893    4.9325 F   0  0  0  0  0  0  0  0  0  0  0  0
   -3.0616    0.1536    1.6757 I   0  0  0  0  0  0  0  0  0  0  0  0
    0.0000    0.0000    0.0000 S   0  0  0  0  0  0  0  0  0  0  0  0
    0.8361    2.6006    6.3741 H   0  0  0  0  0  0  0  0  0  0  0  0
   -0.8756    2.1672    6.1954 H   0  0  0  0  0  0  0  0  0  0  0  0
    0.0138    1.7577    7.7136 H   0  0  0  0  0  0  0  0  0  0  0  0
    2.3910    0.1763    4.2195 H   0  0  0  0  0  0  0  0  0  0  0  0
    2.1487   -0.1023    1.7525 H   0  0  0  0  0  0  0  0  0  0  0  0
   -1.0838   -1.9834   -0.5044 Au  0  0  0  0  0  0  0  0  0  0  0  0
  1 18  1  0  0  0  0
  2  1  1  0  0  0  0
  2  3  2  0  0  0  0
  4  2  1  0  0  0  0
  5 19  1  0  0  0  0
  5  4  2  0  0  0  0
  6  5  1  0  0  0  0
  7  6  2  0  0  0  0
  7  8  1  0  0  0  0
  8  9  2  0  0  0  0
  9  4  1  0  0  0  0
  9 10  1  0  0  0  0
 10 13  1  0  0  0  0
 10 11  1  0  0  0  0
 12 10  1  0  0  0  0
 14  8  1  0  0  0  0
 15  7  1  0  0  0  0
 16  1  1  0  0  0  0
 17  1  1  0  0  0  0
 20  6  1  0  0  0  0
 21 15  1  0  0  0  0
M  END
