313341697.xyz
 OpenBabel07262113483D
Sc1cc(C(=O)N)c(c(c1)C(F)(F)F)I
 20 20  0  0  0  0  0  0  0  0999 V2000
    0.0000    0.0000    0.0000 S   0  0  0  0  0  0  0  0  0  0  0  0
    0.0000   -0.0000    1.7835 C   0  0  0  0  0  0  0  0  0  0  0  0
    1.1934    0.0000    2.5082 C   0  0  0  0  0  0  0  0  0  0  0  0
    1.1992   -0.0847    3.9069 C   0  0  0  0  0  0  0  0  0  0  0  0
    2.5887   -0.0525    4.5229 C   0  0  0  0  0  0  0  0  0  0  0  0
    3.3878    0.8007    4.1875 O   0  0  0  0  0  0  0  0  0  0  0  0
    2.8967   -1.0754    5.3634 N   0  0  0  0  0  0  0  0  0  0  0  0
   -0.0248   -0.1300    4.5986 C   0  0  0  0  0  0  0  0  0  0  0  0
   -1.2389   -0.1348    3.8773 C   0  0  0  0  0  0  0  0  0  0  0  0
   -1.2120   -0.0776    2.4821 C   0  0  0  0  0  0  0  0  0  0  0  0
   -2.6024   -0.1921    4.5460 C   0  0  0  0  0  0  0  0  0  0  0  0
   -2.7326   -1.2828    5.3181 F   0  0  0  0  0  0  0  0  0  0  0  0
   -3.5915   -0.2369    3.6381 F   0  0  0  0  0  0  0  0  0  0  0  0
   -2.8287    0.8832    5.3166 F   0  0  0  0  0  0  0  0  0  0  0  0
   -0.0345   -0.0712    6.7367 I   0  0  0  0  0  0  0  0  0  0  0  0
    0.2756    2.2347   -0.4836 Au  0  0  0  0  0  0  0  0  0  0  0  0
    2.1491    0.0773    1.9882 H   0  0  0  0  0  0  0  0  0  0  0  0
    3.7913   -1.0376    5.8393 H   0  0  0  0  0  0  0  0  0  0  0  0
    2.1932   -1.7153    5.7077 H   0  0  0  0  0  0  0  0  0  0  0  0
   -2.1482   -0.0802    1.9263 H   0  0  0  0  0  0  0  0  0  0  0  0
  1  2  1  0  0  0  0
  2 10  2  0  0  0  0
  2  3  1  0  0  0  0
  3  4  2  0  0  0  0
  4  5  1  0  0  0  0
  4  8  1  0  0  0  0
  5  7  1  0  0  0  0
  6  5  2  0  0  0  0
  7 19  1  0  0  0  0
  7 18  1  0  0  0  0
  8 15  1  0  0  0  0
  9 11  1  0  0  0  0
  9  8  2  0  0  0  0
 10  9  1  0  0  0  0
 11 14  1  0  0  0  0
 11 12  1  0  0  0  0
 13 11  1  0  0  0  0
 16  1  1  0  0  0  0
 17  3  1  0  0  0  0
 20 10  1  0  0  0  0
M  END
