313342979.xyz
 OpenBabel07262113483D
ClC(=O)c1ccc(c(c1I)C(F)(F)F)S
 18 18  0  0  0  0  0  0  0  0999 V2000
    2.1208   -1.0185    6.5311 Cl  0  0  0  0  0  0  0  0  0  0  0  0
    0.6620   -0.0483    6.0553 C   0  0  0  0  0  0  0  0  0  0  0  0
    0.0511    0.5405    6.8823 O   0  0  0  0  0  0  0  0  0  0  0  0
    0.3918   -0.0826    4.5854 C   0  0  0  0  0  0  0  0  0  0  0  0
    1.4839   -0.0062    3.7100 C   0  0  0  0  0  0  0  0  0  0  0  0
    1.2919   -0.0000    2.3404 C   0  0  0  0  0  0  0  0  0  0  0  0
    0.0000    0.0000    1.7876 C   0  0  0  0  0  0  0  0  0  0  0  0
   -1.1254    0.0223    2.6574 C   0  0  0  0  0  0  0  0  0  0  0  0
   -0.9153   -0.1116    4.0499 C   0  0  0  0  0  0  0  0  0  0  0  0
   -2.5199   -0.6308    5.3714 I   0  0  0  0  0  0  0  0  0  0  0  0
   -2.5452    0.1851    2.1127 C   0  0  0  0  0  0  0  0  0  0  0  0
   -3.1689   -1.0080    1.9981 F   0  0  0  0  0  0  0  0  0  0  0  0
   -3.2923    0.9589    2.9107 F   0  0  0  0  0  0  0  0  0  0  0  0
   -2.5810    0.7664    0.9115 F   0  0  0  0  0  0  0  0  0  0  0  0
    0.0000    0.0000    0.0000 S   0  0  0  0  0  0  0  0  0  0  0  0
    2.4932    0.0049    4.1215 H   0  0  0  0  0  0  0  0  0  0  0  0
    2.1484   -0.0177    1.6656 H   0  0  0  0  0  0  0  0  0  0  0  0
   -1.2680   -1.8472   -0.5400 Au  0  0  0  0  0  0  0  0  0  0  0  0
  2  1  1  0  0  0  0
  2  3  2  0  0  0  0
  4  2  1  0  0  0  0
  5 16  1  0  0  0  0
  5  4  2  0  0  0  0
  6  5  1  0  0  0  0
  7  6  2  0  0  0  0
  7  8  1  0  0  0  0
  8  9  2  0  0  0  0
  9  4  1  0  0  0  0
  9 10  1  0  0  0  0
 11  8  1  0  0  0  0
 11 13  1  0  0  0  0
 12 11  1  0  0  0  0
 14 11  1  0  0  0  0
 15  7  1  0  0  0  0
 17  6  1  0  0  0  0
 18 15  1  0  0  0  0
M  END
