313315480.xyz
 OpenBabel07262113473D
CCOC(=O)c1cc(c(cc1S)Cl)C(F)(F)F
 25 25  0  0  0  0  0  0  0  0999 V2000
   -5.4296    1.8727    3.4906 C   0  0  0  0  0  0  0  0  0  0  0  0
   -4.7345    0.9346    2.5291 C   0  0  0  0  0  0  0  0  0  0  0  0
   -3.3357    0.9156    2.8663 O   0  0  0  0  0  0  0  0  0  0  0  0
   -2.5438    0.1328    2.1174 C   0  0  0  0  0  0  0  0  0  0  0  0
   -2.9636   -0.5161    1.1855 O   0  0  0  0  0  0  0  0  0  0  0  0
   -1.1347    0.1481    2.6195 C   0  0  0  0  0  0  0  0  0  0  0  0
   -0.9457    0.3017    3.9994 C   0  0  0  0  0  0  0  0  0  0  0  0
    0.3172    0.2973    4.5893 C   0  0  0  0  0  0  0  0  0  0  0  0
    1.4375    0.1470    3.7541 C   0  0  0  0  0  0  0  0  0  0  0  0
    1.2736   -0.0000    2.3783 C   0  0  0  0  0  0  0  0  0  0  0  0
    0.0000    0.0000    1.7828 C   0  0  0  0  0  0  0  0  0  0  0  0
    0.0000    0.0000    0.0000 S   0  0  0  0  0  0  0  0  0  0  0  0
    3.0546    0.1265    4.3950 Cl  0  0  0  0  0  0  0  0  0  0  0  0
    0.4459    0.4569    6.0876 C   0  0  0  0  0  0  0  0  0  0  0  0
    1.1610    1.5445    6.4137 F   0  0  0  0  0  0  0  0  0  0  0  0
    1.0441   -0.6037    6.6522 F   0  0  0  0  0  0  0  0  0  0  0  0
   -0.7603    0.5868    6.6689 F   0  0  0  0  0  0  0  0  0  0  0  0
   -6.5044    1.9186    3.2578 H   0  0  0  0  0  0  0  0  0  0  0  0
   -5.0149    2.8893    3.4154 H   0  0  0  0  0  0  0  0  0  0  0  0
   -5.3154    1.5287    4.5299 H   0  0  0  0  0  0  0  0  0  0  0  0
   -5.1274   -0.0931    2.5898 H   0  0  0  0  0  0  0  0  0  0  0  0
   -4.8389    1.2583    1.4815 H   0  0  0  0  0  0  0  0  0  0  0  0
   -1.8203    0.4327    4.6331 H   0  0  0  0  0  0  0  0  0  0  0  0
    2.1535   -0.1190    1.7467 H   0  0  0  0  0  0  0  0  0  0  0  0
   -1.1412   -1.9391   -0.5262 Au  0  0  0  0  0  0  0  0  0  0  0  0
  1 20  1  0  0  0  0
  2 21  1  0  0  0  0
  2  3  1  0  0  0  0
  2  1  1  0  0  0  0
  4  6  1  0  0  0  0
  4  3  1  0  0  0  0
  5  4  2  0  0  0  0
  6  7  2  0  0  0  0
  7  8  1  0  0  0  0
  7 23  1  0  0  0  0
  8 14  1  0  0  0  0
  9 13  1  0  0  0  0
  9  8  2  0  0  0  0
 10  9  1  0  0  0  0
 11 10  2  0  0  0  0
 11  6  1  0  0  0  0
 12 11  1  0  0  0  0
 14 15  1  0  0  0  0
 14 16  1  0  0  0  0
 14 17  1  0  0  0  0
 18  1  1  0  0  0  0
 19  1  1  0  0  0  0
 22  2  1  0  0  0  0
 24 10  1  0  0  0  0
 25 12  1  0  0  0  0
M  END
