313388551.xyz
 OpenBabel07262113483D
N#Cc1cc(S)cc(c1C(F)(F)F)[N+](=O)[O-]
 19 19  0  0  0  0  0  0  0  0999 V2000
    3.8119    0.0712    4.6498 N   0  0  0  0  0  0  0  0  0  0  0  0
    2.6981    0.0453    4.3284 C   0  0  0  0  0  0  0  0  0  0  0  0
    1.3581    0.0432    3.8052 C   0  0  0  0  0  0  0  0  0  0  0  0
    1.2505   -0.0000    2.4051 C   0  0  0  0  0  0  0  0  0  0  0  0
   -0.0000   -0.0000    1.7700 C   0  0  0  0  0  0  0  0  0  0  0  0
    0.0000    0.0000    0.0000 S   0  0  0  0  0  0  0  0  0  0  0  0
   -1.1467    0.0613    2.5736 C   0  0  0  0  0  0  0  0  0  0  0  0
   -1.0278    0.1202    3.9560 C   0  0  0  0  0  0  0  0  0  0  0  0
    0.2053    0.0825    4.6221 C   0  0  0  0  0  0  0  0  0  0  0  0
    0.3074    0.0450    6.1419 C   0  0  0  0  0  0  0  0  0  0  0  0
    1.4360   -0.5638    6.5300 F   0  0  0  0  0  0  0  0  0  0  0  0
    0.3076    1.2693    6.6735 F   0  0  0  0  0  0  0  0  0  0  0  0
   -0.7090   -0.6519    6.6714 F   0  0  0  0  0  0  0  0  0  0  0  0
   -2.3102    0.2846    4.6837 N   0  0  0  0  0  0  0  0  0  0  0  0
   -2.3493    1.1418    5.5436 O   0  0  0  0  0  0  0  0  0  0  0  0
   -3.2393   -0.4126    4.3182 O   0  0  0  0  0  0  0  0  0  0  0  0
    2.1650   -0.0481    1.8125 H   0  0  0  0  0  0  0  0  0  0  0  0
   -2.0339   -0.8915   -0.6004 Au  0  0  0  0  0  0  0  0  0  0  0  0
   -2.1439    0.0680    2.1356 H   0  0  0  0  0  0  0  0  0  0  0  0
  2  1  3  0  0  0  0
  3  2  1  0  0  0  0
  3  9  2  0  0  0  0
  4  3  1  0  0  0  0
  5  4  2  0  0  0  0
  5  7  1  0  0  0  0
  6  5  1  0  0  0  0
  7  8  2  0  0  0  0
  8  9  1  0  0  0  0
  8 14  1  0  0  0  0
  9 10  1  0  0  0  0
 10 11  1  0  0  0  0
 10 13  1  0  0  0  0
 10 12  1  0  0  0  0
 14 15  2  0  0  0  0
 16 14  2  0  0  0  0
 17  4  1  0  0  0  0
 18  6  1  0  0  0  0
 19  7  1  0  0  0  0
M  END
