313385479.xyz
 OpenBabel07262113483D
N#Cc1cc([N+](=O)[O-])c(cc1S)C(F)(F)F
 19 19  0  0  0  0  0  0  0  0999 V2000
    3.5776   -0.0077    1.8521 N   0  0  0  0  0  0  0  0  0  0  0  0
    2.4660   -0.0043    2.2000 C   0  0  0  0  0  0  0  0  0  0  0  0
    1.1087    0.0000    2.6484 C   0  0  0  0  0  0  0  0  0  0  0  0
    0.8907    0.0021    4.0359 C   0  0  0  0  0  0  0  0  0  0  0  0
   -0.3905    0.0285    4.5611 C   0  0  0  0  0  0  0  0  0  0  0  0
   -0.4861    0.0971    6.0309 N   0  0  0  0  0  0  0  0  0  0  0  0
   -1.4599    0.6505    6.5058 O   0  0  0  0  0  0  0  0  0  0  0  0
    0.4409   -0.3774    6.6671 O   0  0  0  0  0  0  0  0  0  0  0  0
   -1.5135    0.0123    3.7043 C   0  0  0  0  0  0  0  0  0  0  0  0
   -1.2912   -0.0100    2.3344 C   0  0  0  0  0  0  0  0  0  0  0  0
   -0.0000   -0.0000    1.7545 C   0  0  0  0  0  0  0  0  0  0  0  0
    0.0000    0.0000    0.0000 S   0  0  0  0  0  0  0  0  0  0  0  0
   -2.9626   -0.0363    4.1837 C   0  0  0  0  0  0  0  0  0  0  0  0
   -3.7753   -0.3869    3.1679 F   0  0  0  0  0  0  0  0  0  0  0  0
   -3.1266   -0.9513    5.1448 F   0  0  0  0  0  0  0  0  0  0  0  0
   -3.3881    1.1467    4.6268 F   0  0  0  0  0  0  0  0  0  0  0  0
    1.7344   -0.0127    4.7243 H   0  0  0  0  0  0  0  0  0  0  0  0
   -2.1534   -0.0483    1.6698 H   0  0  0  0  0  0  0  0  0  0  0  0
    2.2276   -0.0199   -0.6270 Au  0  0  0  0  0  0  0  0  0  0  0  0
  1  2  3  0  0  0  0
  2  3  1  0  0  0  0
  3  4  2  0  0  0  0
  4  5  1  0  0  0  0
  4 17  1  0  0  0  0
  5  6  1  0  0  0  0
  6  7  2  0  0  0  0
  6  8  2  0  0  0  0
  9 13  1  0  0  0  0
  9  5  2  0  0  0  0
 10  9  1  0  0  0  0
 11 10  2  0  0  0  0
 11  3  1  0  0  0  0
 12 11  1  0  0  0  0
 13 16  1  0  0  0  0
 13 15  1  0  0  0  0
 14 13  1  0  0  0  0
 18 10  1  0  0  0  0
 19 12  1  0  0  0  0
M  END
