313346110.xyz
 OpenBabel07262113483D
COC(=O)c1cc(S)c(cc1Br)C(F)(F)F
 22 22  0  0  0  0  0  0  0  0999 V2000
    4.2255    0.7428    6.0707 C   0  0  0  0  0  0  0  0  0  0  0  0
    2.9077    0.7103    5.5217 O   0  0  0  0  0  0  0  0  0  0  0  0
    2.7684    0.0869    4.3502 C   0  0  0  0  0  0  0  0  0  0  0  0
    3.6895   -0.3915    3.7313 O   0  0  0  0  0  0  0  0  0  0  0  0
    1.3551    0.0861    3.8389 C   0  0  0  0  0  0  0  0  0  0  0  0
    1.2338   -0.0000    2.4442 C   0  0  0  0  0  0  0  0  0  0  0  0
    0.0000   -0.0000    1.7859 C   0  0  0  0  0  0  0  0  0  0  0  0
    0.0000    0.0000    0.0000 S   0  0  0  0  0  0  0  0  0  0  0  0
   -1.1724    0.0805    2.5718 C   0  0  0  0  0  0  0  0  0  0  0  0
   -1.0708    0.1368    3.9607 C   0  0  0  0  0  0  0  0  0  0  0  0
    0.1742    0.1394    4.6013 C   0  0  0  0  0  0  0  0  0  0  0  0
    0.1303    0.1472    6.5015 Br  0  0  0  0  0  0  0  0  0  0  0  0
   -2.5588    0.0976    1.9531 C   0  0  0  0  0  0  0  0  0  0  0  0
   -3.5136    0.1985    2.8969 F   0  0  0  0  0  0  0  0  0  0  0  0
   -2.7215    1.1301    1.1187 F   0  0  0  0  0  0  0  0  0  0  0  0
   -2.8123   -1.0317    1.2686 F   0  0  0  0  0  0  0  0  0  0  0  0
    4.6101   -0.2776    6.2152 H   0  0  0  0  0  0  0  0  0  0  0  0
    4.1389    1.2614    7.0326 H   0  0  0  0  0  0  0  0  0  0  0  0
    4.9105    1.2830    5.4005 H   0  0  0  0  0  0  0  0  0  0  0  0
    2.1501   -0.0729    1.8580 H   0  0  0  0  0  0  0  0  0  0  0  0
   -0.2183   -2.2451   -0.4752 Au  0  0  0  0  0  0  0  0  0  0  0  0
   -1.9763    0.1779    4.5631 H   0  0  0  0  0  0  0  0  0  0  0  0
  1 17  1  0  0  0  0
  1 18  1  0  0  0  0
  2  1  1  0  0  0  0
  3  2  1  0  0  0  0
  4  3  2  0  0  0  0
  5  3  1  0  0  0  0
  5 11  2  0  0  0  0
  6  5  1  0  0  0  0
  7  6  2  0  0  0  0
  7  9  1  0  0  0  0
  8  7  1  0  0  0  0
  9 10  2  0  0  0  0
 10 22  1  0  0  0  0
 10 11  1  0  0  0  0
 11 12  1  0  0  0  0
 13  9  1  0  0  0  0
 13 14  1  0  0  0  0
 15 13  1  0  0  0  0
 16 13  1  0  0  0  0
 19  1  1  0  0  0  0
 20  6  1  0  0  0  0
 21  8  1  0  0  0  0
M  END
