313324093.xyz
 OpenBabel07262113473D
CCOc1cc(S)cc(c1C)C(=O)Cl
 25 25  0  0  0  0  0  0  0  0999 V2000
    3.9941    1.4305    3.6666 C   0  0  0  0  0  0  0  0  0  0  0  0
    3.6348   -0.0050    4.0198 C   0  0  0  0  0  0  0  0  0  0  0  0
    2.3524   -0.1146    4.6279 O   0  0  0  0  0  0  0  0  0  0  0  0
    1.2227   -0.0794    3.8801 C   0  0  0  0  0  0  0  0  0  0  0  0
    1.2153   -0.0000    2.4853 C   0  0  0  0  0  0  0  0  0  0  0  0
   -0.0000   -0.0000    1.7821 C   0  0  0  0  0  0  0  0  0  0  0  0
    0.0000    0.0000    0.0000 S   0  0  0  0  0  0  0  0  0  0  0  0
   -1.2022   -0.0789    2.4855 C   0  0  0  0  0  0  0  0  0  0  0  0
   -1.1908   -0.1257    3.8909 C   0  0  0  0  0  0  0  0  0  0  0  0
    0.0131   -0.1541    4.6183 C   0  0  0  0  0  0  0  0  0  0  0  0
    0.1120   -0.3088    6.1111 C   0  0  0  0  0  0  0  0  0  0  0  0
   -2.5502   -0.1484    4.5054 C   0  0  0  0  0  0  0  0  0  0  0  0
   -3.4827   -0.7730    4.1187 O   0  0  0  0  0  0  0  0  0  0  0  0
   -2.7668    1.0337    5.8691 Cl  0  0  0  0  0  0  0  0  0  0  0  0
    5.0219    1.4753    3.2733 H   0  0  0  0  0  0  0  0  0  0  0  0
    3.9370    2.0683    4.5617 H   0  0  0  0  0  0  0  0  0  0  0  0
    3.3194    1.8490    2.9051 H   0  0  0  0  0  0  0  0  0  0  0  0
    4.3325   -0.3984    4.7735 H   0  0  0  0  0  0  0  0  0  0  0  0
    3.6975   -0.6692    3.1400 H   0  0  0  0  0  0  0  0  0  0  0  0
    2.1406    0.0606    1.9162 H   0  0  0  0  0  0  0  0  0  0  0  0
    0.0431    2.2468   -0.5080 Au  0  0  0  0  0  0  0  0  0  0  0  0
   -2.1513   -0.0813    1.9502 H   0  0  0  0  0  0  0  0  0  0  0  0
    0.3490    0.6555    6.5903 H   0  0  0  0  0  0  0  0  0  0  0  0
   -0.8146   -0.6833    6.5579 H   0  0  0  0  0  0  0  0  0  0  0  0
    0.9358   -0.9939    6.3555 H   0  0  0  0  0  0  0  0  0  0  0  0
  1  2  1  0  0  0  0
  1 16  1  0  0  0  0
  2  3  1  0  0  0  0
  2 18  1  0  0  0  0
  4 10  2  0  0  0  0
  4  3  1  0  0  0  0
  5  4  1  0  0  0  0
  6  5  2  0  0  0  0
  6  8  1  0  0  0  0
  7  6  1  0  0  0  0
  8  9  2  0  0  0  0
  9 12  1  0  0  0  0
  9 10  1  0  0  0  0
 10 11  1  0  0  0  0
 11 25  1  0  0  0  0
 11 24  1  0  0  0  0
 11 23  1  0  0  0  0
 12 14  1  0  0  0  0
 13 12  2  0  0  0  0
 15  1  1  0  0  0  0
 17  1  1  0  0  0  0
 19  2  1  0  0  0  0
 20  5  1  0  0  0  0
 21  7  1  0  0  0  0
 22  8  1  0  0  0  0
M  END
