313302755.xyz
 OpenBabel07262113473D
ClC(=O)c1ccc(c(c1F)C(F)(F)F)S
 18 18  0  0  0  0  0  0  0  0999 V2000
    1.9656   -0.4350    6.7472 Cl  0  0  0  0  0  0  0  0  0  0  0  0
    0.2875   -0.1515    6.0954 C   0  0  0  0  0  0  0  0  0  0  0  0
   -0.6106   -0.0179    6.8584 O   0  0  0  0  0  0  0  0  0  0  0  0
    0.2195   -0.1209    4.6092 C   0  0  0  0  0  0  0  0  0  0  0  0
    1.3624   -0.0657    3.8008 C   0  0  0  0  0  0  0  0  0  0  0  0
    1.2543    0.0000    2.4195 C   0  0  0  0  0  0  0  0  0  0  0  0
   -0.0000   -0.0000    1.7905 C   0  0  0  0  0  0  0  0  0  0  0  0
   -1.1781   -0.0837    2.5762 C   0  0  0  0  0  0  0  0  0  0  0  0
   -1.0434   -0.1274    3.9728 C   0  0  0  0  0  0  0  0  0  0  0  0
   -2.1228   -0.1908    4.7349 F   0  0  0  0  0  0  0  0  0  0  0  0
   -2.5476   -0.1241    1.9056 C   0  0  0  0  0  0  0  0  0  0  0  0
   -2.7775    1.0136    1.2202 F   0  0  0  0  0  0  0  0  0  0  0  0
   -3.5581   -0.2609    2.7673 F   0  0  0  0  0  0  0  0  0  0  0  0
   -2.6296   -1.1458    1.0437 F   0  0  0  0  0  0  0  0  0  0  0  0
    0.0000    0.0000    0.0000 S   0  0  0  0  0  0  0  0  0  0  0  0
    2.3418   -0.0658    4.2766 H   0  0  0  0  0  0  0  0  0  0  0  0
    2.1479    0.0576    1.7980 H   0  0  0  0  0  0  0  0  0  0  0  0
   -0.2669    2.2449   -0.4497 Au  0  0  0  0  0  0  0  0  0  0  0  0
  2  1  1  0  0  0  0
  2  3  2  0  0  0  0
  4  2  1  0  0  0  0
  5 16  1  0  0  0  0
  5  4  2  0  0  0  0
  6  5  1  0  0  0  0
  7  6  2  0  0  0  0
  7  8  1  0  0  0  0
  8  9  2  0  0  0  0
  9  4  1  0  0  0  0
  9 10  1  0  0  0  0
 11  8  1  0  0  0  0
 11 13  1  0  0  0  0
 12 11  1  0  0  0  0
 14 11  1  0  0  0  0
 15  7  1  0  0  0  0
 17  6  1  0  0  0  0
 18 15  1  0  0  0  0
M  END
