313315819.xyz
 OpenBabel07262113473D
COc1c(ccc(c1F)S)OC(F)(F)F
 21 21  0  0  0  0  0  0  0  0999 V2000
   -3.2955   -1.2320    4.3538 C   0  0  0  0  0  0  0  0  0  0  0  0
   -2.3301   -0.2254    4.6509 O   0  0  0  0  0  0  0  0  0  0  0  0
   -1.2029   -0.1834    3.9113 C   0  0  0  0  0  0  0  0  0  0  0  0
    0.0440   -0.2019    4.5640 C   0  0  0  0  0  0  0  0  0  0  0  0
    1.2424   -0.1037    3.8613 C   0  0  0  0  0  0  0  0  0  0  0  0
    1.2196   -0.0000    2.4723 C   0  0  0  0  0  0  0  0  0  0  0  0
    0.0000   -0.0000    1.7744 C   0  0  0  0  0  0  0  0  0  0  0  0
   -1.1907   -0.0901    2.5117 C   0  0  0  0  0  0  0  0  0  0  0  0
   -2.3677   -0.0371    1.8755 F   0  0  0  0  0  0  0  0  0  0  0  0
    0.0000    0.0000    0.0000 S   0  0  0  0  0  0  0  0  0  0  0  0
    0.0529   -0.2557    5.9515 O   0  0  0  0  0  0  0  0  0  0  0  0
    0.1304   -1.4721    6.5347 C   0  0  0  0  0  0  0  0  0  0  0  0
   -0.0001   -1.3090    7.8416 F   0  0  0  0  0  0  0  0  0  0  0  0
    1.3083   -2.0706    6.2920 F   0  0  0  0  0  0  0  0  0  0  0  0
   -0.8250   -2.3120    6.1054 F   0  0  0  0  0  0  0  0  0  0  0  0
   -2.8172   -2.2236    4.3005 H   0  0  0  0  0  0  0  0  0  0  0  0
   -4.0106   -1.2234    5.1865 H   0  0  0  0  0  0  0  0  0  0  0  0
   -3.8243   -1.0249    3.4118 H   0  0  0  0  0  0  0  0  0  0  0  0
    2.1812   -0.1096    4.4155 H   0  0  0  0  0  0  0  0  0  0  0  0
    2.1472    0.0875    1.9054 H   0  0  0  0  0  0  0  0  0  0  0  0
   -1.1026    1.9555   -0.5188 Au  0  0  0  0  0  0  0  0  0  0  0  0
  1  2  1  0  0  0  0
  1 17  1  0  0  0  0
  3  4  1  0  0  0  0
  3  2  1  0  0  0  0
  4 11  1  0  0  0  0
  5 19  1  0  0  0  0
  5  4  2  0  0  0  0
  6  5  1  0  0  0  0
  7  6  2  0  0  0  0
  7  8  1  0  0  0  0
  8  3  2  0  0  0  0
  9  8  1  0  0  0  0
 10  7  1  0  0  0  0
 11 12  1  0  0  0  0
 12 13  1  0  0  0  0
 14 12  1  0  0  0  0
 15 12  1  0  0  0  0
 16  1  1  0  0  0  0
 18  1  1  0  0  0  0
 20  6  1  0  0  0  0
 21 10  1  0  0  0  0
M  END
