313322609.xyz
 OpenBabel07262113473D
CCOC(=O)c1cc(Br)cc(c1OC(F)(F)F)S
 26 26  0  0  0  0  0  0  0  0999 V2000
   -3.1593   -0.7555    7.7454 C   0  0  0  0  0  0  0  0  0  0  0  0
   -3.1967    0.5463    6.9655 C   0  0  0  0  0  0  0  0  0  0  0  0
   -2.1214    0.6228    6.0097 O   0  0  0  0  0  0  0  0  0  0  0  0
   -2.3095    0.0047    4.8313 C   0  0  0  0  0  0  0  0  0  0  0  0
   -3.3179   -0.5820    4.5285 O   0  0  0  0  0  0  0  0  0  0  0  0
   -1.0823    0.1038    3.9712 C   0  0  0  0  0  0  0  0  0  0  0  0
    0.1769    0.1523    4.5860 C   0  0  0  0  0  0  0  0  0  0  0  0
    1.3288    0.1045    3.8032 C   0  0  0  0  0  0  0  0  0  0  0  0
    3.0350    0.1412    4.6460 Br  0  0  0  0  0  0  0  0  0  0  0  0
    1.2520    0.0000    2.4157 C   0  0  0  0  0  0  0  0  0  0  0  0
   -0.0000   -0.0000    1.7763 C   0  0  0  0  0  0  0  0  0  0  0  0
   -1.1628    0.0733    2.5698 C   0  0  0  0  0  0  0  0  0  0  0  0
   -2.3943    0.0340    1.9429 O   0  0  0  0  0  0  0  0  0  0  0  0
   -3.0653    1.1931    1.7207 C   0  0  0  0  0  0  0  0  0  0  0  0
   -3.4184    1.8040    2.8612 F   0  0  0  0  0  0  0  0  0  0  0  0
   -4.1599    0.8912    1.0389 F   0  0  0  0  0  0  0  0  0  0  0  0
   -2.3428    2.0726    1.0207 F   0  0  0  0  0  0  0  0  0  0  0  0
    0.0000    0.0000    0.0000 S   0  0  0  0  0  0  0  0  0  0  0  0
   -3.3335   -1.6125    7.0790 H   0  0  0  0  0  0  0  0  0  0  0  0
   -3.9481   -0.7529    8.5141 H   0  0  0  0  0  0  0  0  0  0  0  0
   -2.1887   -0.8852    8.2487 H   0  0  0  0  0  0  0  0  0  0  0  0
   -4.1508    0.6594    6.4305 H   0  0  0  0  0  0  0  0  0  0  0  0
   -3.0441    1.4150    7.6208 H   0  0  0  0  0  0  0  0  0  0  0  0
    0.2380    0.2043    5.6714 H   0  0  0  0  0  0  0  0  0  0  0  0
    2.1569   -0.0809    1.8131 H   0  0  0  0  0  0  0  0  0  0  0  0
   -1.5834   -1.5867   -0.5452 Au  0  0  0  0  0  0  0  0  0  0  0  0
  1 21  1  0  0  0  0
  1 20  1  0  0  0  0
  2 23  1  0  0  0  0
  2  1  1  0  0  0  0
  3  2  1  0  0  0  0
  4  3  1  0  0  0  0
  5  4  2  0  0  0  0
  6  7  1  0  0  0  0
  6  4  1  0  0  0  0
  7 24  1  0  0  0  0
  8  7  2  0  0  0  0
  8  9  1  0  0  0  0
 10  8  1  0  0  0  0
 11 10  2  0  0  0  0
 11 12  1  0  0  0  0
 12  6  2  0  0  0  0
 13 12  1  0  0  0  0
 14 13  1  0  0  0  0
 14 15  1  0  0  0  0
 16 14  1  0  0  0  0
 17 14  1  0  0  0  0
 18 11  1  0  0  0  0
 19  1  1  0  0  0  0
 22  2  1  0  0  0  0
 25 10  1  0  0  0  0
 26 18  1  0  0  0  0
M  END
