313324349.xyz
 OpenBabel07262113473D
CCOc1cc(cc(c1C)S)C(=O)Cl
 25 25  0  0  0  0  0  0  0  0999 V2000
   -3.7194    0.3045    6.4940 C   0  0  0  0  0  0  0  0  0  0  0  0
   -2.2788    0.2603    6.0290 C   0  0  0  0  0  0  0  0  0  0  0  0
   -2.2794    0.1684    4.6109 O   0  0  0  0  0  0  0  0  0  0  0  0
   -1.1036    0.1283    3.9399 C   0  0  0  0  0  0  0  0  0  0  0  0
    0.1389    0.1425    4.5738 C   0  0  0  0  0  0  0  0  0  0  0  0
    1.3207    0.0824    3.8116 C   0  0  0  0  0  0  0  0  0  0  0  0
    1.2518   -0.0000    2.4219 C   0  0  0  0  0  0  0  0  0  0  0  0
   -0.0000   -0.0000    1.7833 C   0  0  0  0  0  0  0  0  0  0  0  0
   -1.1983    0.0753    2.5251 C   0  0  0  0  0  0  0  0  0  0  0  0
   -2.5456    0.0662    1.8706 C   0  0  0  0  0  0  0  0  0  0  0  0
    0.0000    0.0000    0.0000 S   0  0  0  0  0  0  0  0  0  0  0  0
    2.5924    0.0968    4.5769 C   0  0  0  0  0  0  0  0  0  0  0  0
    2.6878    0.1554    5.7630 O   0  0  0  0  0  0  0  0  0  0  0  0
    4.0940    0.0167    3.5680 Cl  0  0  0  0  0  0  0  0  0  0  0  0
   -4.2567   -0.6022    6.1773 H   0  0  0  0  0  0  0  0  0  0  0  0
   -4.2373    1.1788    6.0716 H   0  0  0  0  0  0  0  0  0  0  0  0
   -3.7616    0.3702    7.5918 H   0  0  0  0  0  0  0  0  0  0  0  0
   -1.7321    1.1681    6.3444 H   0  0  0  0  0  0  0  0  0  0  0  0
   -1.7507   -0.6105    6.4594 H   0  0  0  0  0  0  0  0  0  0  0  0
    0.2302    0.1937    5.6565 H   0  0  0  0  0  0  0  0  0  0  0  0
    2.1592   -0.0672    1.8255 H   0  0  0  0  0  0  0  0  0  0  0  0
   -2.8252   -0.9653    1.5850 H   0  0  0  0  0  0  0  0  0  0  0  0
   -3.3173    0.4492    2.5479 H   0  0  0  0  0  0  0  0  0  0  0  0
   -2.5263    0.6496    0.9400 H   0  0  0  0  0  0  0  0  0  0  0  0
   -0.7688   -2.1126   -0.5156 Au  0  0  0  0  0  0  0  0  0  0  0  0
  1 17  1  0  0  0  0
  2 18  1  0  0  0  0
  2 19  1  0  0  0  0
  2  1  1  0  0  0  0
  3  2  1  0  0  0  0
  4  5  1  0  0  0  0
  4  3  1  0  0  0  0
  5 20  1  0  0  0  0
  6  5  2  0  0  0  0
  6 12  1  0  0  0  0
  7  6  1  0  0  0  0
  8  7  2  0  0  0  0
  8  9  1  0  0  0  0
  9  4  2  0  0  0  0
 10  9  1  0  0  0  0
 10 23  1  0  0  0  0
 11  8  1  0  0  0  0
 12 13  2  0  0  0  0
 14 12  1  0  0  0  0
 15  1  1  0  0  0  0
 16  1  1  0  0  0  0
 21  7  1  0  0  0  0
 22 10  1  0  0  0  0
 24 10  1  0  0  0  0
 25 11  1  0  0  0  0
M  END
