313481525.xyz
 OpenBabel07262113483D
COC(=O)Cc1cc(OC(F)(F)F)c(cc1C)S
 29 29  0  0  0  0  0  0  0  0999 V2000
    0.7955   -3.0664    7.2076 C   0  0  0  0  0  0  0  0  0  0  0  0
    0.8470   -1.7099    6.7628 O   0  0  0  0  0  0  0  0  0  0  0  0
   -0.3285   -1.0635    6.6913 C   0  0  0  0  0  0  0  0  0  0  0  0
   -1.3820   -1.5580    7.0106 O   0  0  0  0  0  0  0  0  0  0  0  0
   -0.1490    0.3262    6.1049 C   0  0  0  0  0  0  0  0  0  0  0  0
   -0.1238    0.2478    4.5912 C   0  0  0  0  0  0  0  0  0  0  0  0
    1.1060    0.1029    3.9386 C   0  0  0  0  0  0  0  0  0  0  0  0
    1.1681    0.0000    2.5542 C   0  0  0  0  0  0  0  0  0  0  0  0
    2.3972   -0.2047    1.9341 O   0  0  0  0  0  0  0  0  0  0  0  0
    3.2378    0.8428    1.7796 C   0  0  0  0  0  0  0  0  0  0  0  0
    4.2095    0.4634    0.9589 F   0  0  0  0  0  0  0  0  0  0  0  0
    2.6326    1.9196    1.2751 F   0  0  0  0  0  0  0  0  0  0  0  0
    3.7954    1.2136    2.9479 F   0  0  0  0  0  0  0  0  0  0  0  0
    0.0000    0.0000    1.7740 C   0  0  0  0  0  0  0  0  0  0  0  0
   -1.2286    0.1068    2.4466 C   0  0  0  0  0  0  0  0  0  0  0  0
   -1.3175    0.2416    3.8367 C   0  0  0  0  0  0  0  0  0  0  0  0
   -2.6657    0.3628    4.5015 C   0  0  0  0  0  0  0  0  0  0  0  0
    0.0000    0.0000    0.0000 S   0  0  0  0  0  0  0  0  0  0  0  0
    0.3769   -3.1278    8.2232 H   0  0  0  0  0  0  0  0  0  0  0  0
    0.1688   -3.6711    6.5350 H   0  0  0  0  0  0  0  0  0  0  0  0
    1.8296   -3.4308    7.1972 H   0  0  0  0  0  0  0  0  0  0  0  0
    0.7969    0.7460    6.4731 H   0  0  0  0  0  0  0  0  0  0  0  0
   -0.9787    0.9486    6.4612 H   0  0  0  0  0  0  0  0  0  0  0  0
    2.0335    0.0689    4.5112 H   0  0  0  0  0  0  0  0  0  0  0  0
   -2.1428    0.0827    1.8499 H   0  0  0  0  0  0  0  0  0  0  0  0
   -3.4771    0.2522    3.7688 H   0  0  0  0  0  0  0  0  0  0  0  0
   -2.7955   -0.3957    5.2877 H   0  0  0  0  0  0  0  0  0  0  0  0
   -2.7830    1.3487    4.9834 H   0  0  0  0  0  0  0  0  0  0  0  0
    1.2543   -1.8554   -0.5470 Au  0  0  0  0  0  0  0  0  0  0  0  0
  1 19  1  0  0  0  0
  2  1  1  0  0  0  0
  3  2  1  0  0  0  0
  3  4  2  0  0  0  0
  5 23  1  0  0  0  0
  5 22  1  0  0  0  0
  5  3  1  0  0  0  0
  6  5  1  0  0  0  0
  7 24  1  0  0  0  0
  7  6  1  0  0  0  0
  8  7  2  0  0  0  0
  9  8  1  0  0  0  0
 10  9  1  0  0  0  0
 10 13  1  0  0  0  0
 11 10  1  0  0  0  0
 12 10  1  0  0  0  0
 14 15  2  0  0  0  0
 14  8  1  0  0  0  0
 15 16  1  0  0  0  0
 16 17  1  0  0  0  0
 16  6  2  0  0  0  0
 17 28  1  0  0  0  0
 17 27  1  0  0  0  0
 18 14  1  0  0  0  0
 20  1  1  0  0  0  0
 21  1  1  0  0  0  0
 25 15  1  0  0  0  0
 26 17  1  0  0  0  0
 29 18  1  0  0  0  0
M  END
