313474619.xyz
 OpenBabel07262113483D
COC(=O)c1cc(C)cc(c1S)C
 25 25  0  0  0  0  0  0  0  0999 V2000
   -3.9626   -1.0872    0.3904 C   0  0  0  0  0  0  0  0  0  0  0  0
   -2.7334   -0.9952    1.1058 O   0  0  0  0  0  0  0  0  0  0  0  0
   -2.5593    0.1102    1.8461 C   0  0  0  0  0  0  0  0  0  0  0  0
   -3.4220    0.9360    2.0239 O   0  0  0  0  0  0  0  0  0  0  0  0
   -1.2077    0.1532    2.4945 C   0  0  0  0  0  0  0  0  0  0  0  0
   -1.1879    0.3783    3.8744 C   0  0  0  0  0  0  0  0  0  0  0  0
    0.0146    0.3877    4.5865 C   0  0  0  0  0  0  0  0  0  0  0  0
    0.0436    0.6071    6.0763 C   0  0  0  0  0  0  0  0  0  0  0  0
    1.2048    0.1828    3.8729 C   0  0  0  0  0  0  0  0  0  0  0  0
    1.2303    0.0000    2.4872 C   0  0  0  0  0  0  0  0  0  0  0  0
    0.0000   -0.0000    1.7799 C   0  0  0  0  0  0  0  0  0  0  0  0
    0.0000    0.0000    0.0000 S   0  0  0  0  0  0  0  0  0  0  0  0
    2.5399   -0.2027    1.7771 C   0  0  0  0  0  0  0  0  0  0  0  0
   -4.0682   -0.2394   -0.3030 H   0  0  0  0  0  0  0  0  0  0  0  0
   -4.8199   -1.0854    1.0801 H   0  0  0  0  0  0  0  0  0  0  0  0
   -3.9192   -2.0304   -0.1674 H   0  0  0  0  0  0  0  0  0  0  0  0
   -2.1361    0.5396    4.3916 H   0  0  0  0  0  0  0  0  0  0  0  0
   -0.9633    0.7889    6.4780 H   0  0  0  0  0  0  0  0  0  0  0  0
    0.4649   -0.2685    6.5978 H   0  0  0  0  0  0  0  0  0  0  0  0
    0.6761    1.4714    6.3373 H   0  0  0  0  0  0  0  0  0  0  0  0
    2.1540    0.1816    4.4168 H   0  0  0  0  0  0  0  0  0  0  0  0
    0.0320   -2.2507   -0.5065 Au  0  0  0  0  0  0  0  0  0  0  0  0
    3.3822   -0.1518    2.4813 H   0  0  0  0  0  0  0  0  0  0  0  0
    2.5620   -1.1836    1.2726 H   0  0  0  0  0  0  0  0  0  0  0  0
    2.6871    0.5476    0.9861 H   0  0  0  0  0  0  0  0  0  0  0  0
  1 15  1  0  0  0  0
  1  2  1  0  0  0  0
  2  3  1  0  0  0  0
  3  4  2  0  0  0  0
  3  5  1  0  0  0  0
  5  6  2  0  0  0  0
  6 17  1  0  0  0  0
  6  7  1  0  0  0  0
  7  8  1  0  0  0  0
  8 20  1  0  0  0  0
  8 18  1  0  0  0  0
  8 19  1  0  0  0  0
  9 21  1  0  0  0  0
  9  7  2  0  0  0  0
 10  9  1  0  0  0  0
 11 10  2  0  0  0  0
 11  5  1  0  0  0  0
 12 11  1  0  0  0  0
 13 23  1  0  0  0  0
 13 10  1  0  0  0  0
 14  1  1  0  0  0  0
 16  1  1  0  0  0  0
 22 12  1  0  0  0  0
 24 13  1  0  0  0  0
 25 13  1  0  0  0  0
M  END
