313482272.xyz
 OpenBabel07262113483D
OC(=O)c1c(S)ccc(c1C(F)(F)F)C(F)(F)F
 22 22  0  0  0  0  0  0  0  0999 V2000
    2.9706    0.6850    1.0962 O   0  0  0  0  0  0  0  0  0  0  0  0
    2.5007   -0.2737    1.9023 C   0  0  0  0  0  0  0  0  0  0  0  0
    3.0765   -1.3204    2.0389 O   0  0  0  0  0  0  0  0  0  0  0  0
    1.1705    0.0000    2.5804 C   0  0  0  0  0  0  0  0  0  0  0  0
   -0.0000    0.0000    1.7852 C   0  0  0  0  0  0  0  0  0  0  0  0
    0.0000    0.0000    0.0000 S   0  0  0  0  0  0  0  0  0  0  0  0
   -1.2479    0.0860    2.4150 C   0  0  0  0  0  0  0  0  0  0  0  0
   -1.3353    0.1656    3.7985 C   0  0  0  0  0  0  0  0  0  0  0  0
   -0.1875    0.1724    4.5974 C   0  0  0  0  0  0  0  0  0  0  0  0
    1.0812    0.1137    3.9806 C   0  0  0  0  0  0  0  0  0  0  0  0
    2.3753    0.1728    4.7917 C   0  0  0  0  0  0  0  0  0  0  0  0
    2.2554    0.9728    5.8588 F   0  0  0  0  0  0  0  0  0  0  0  0
    3.3809    0.6836    4.0565 F   0  0  0  0  0  0  0  0  0  0  0  0
    2.7532   -1.0347    5.2162 F   0  0  0  0  0  0  0  0  0  0  0  0
   -0.4082    0.2353    6.1032 C   0  0  0  0  0  0  0  0  0  0  0  0
    0.3861   -0.6166    6.7644 F   0  0  0  0  0  0  0  0  0  0  0  0
   -0.2099    1.4663    6.5944 F   0  0  0  0  0  0  0  0  0  0  0  0
   -1.6763   -0.1006    6.4076 F   0  0  0  0  0  0  0  0  0  0  0  0
    2.3070    1.3827    0.9765 H   0  0  0  0  0  0  0  0  0  0  0  0
    1.2595   -1.8716   -0.5148 Au  0  0  0  0  0  0  0  0  0  0  0  0
   -2.1529    0.0683    1.8060 H   0  0  0  0  0  0  0  0  0  0  0  0
   -2.3143    0.2051    4.2740 H   0  0  0  0  0  0  0  0  0  0  0  0
  1  2  1  0  0  0  0
  2  3  2  0  0  0  0
  2  4  1  0  0  0  0
  4 10  2  0  0  0  0
  5  7  2  0  0  0  0
  5  4  1  0  0  0  0
  6  5  1  0  0  0  0
  7  8  1  0  0  0  0
  8 22  1  0  0  0  0
  8  9  2  0  0  0  0
  9 15  1  0  0  0  0
 10  9  1  0  0  0  0
 10 11  1  0  0  0  0
 11 14  1  0  0  0  0
 11 12  1  0  0  0  0
 13 11  1  0  0  0  0
 15 18  1  0  0  0  0
 15 17  1  0  0  0  0
 15 16  1  0  0  0  0
 19  1  1  0  0  0  0
 20  6  1  0  0  0  0
 21  7  1  0  0  0  0
M  END
