313494831.xyz
 OpenBabel07262113483D
CCOC(=O)c1c(C)cc(cc1C)S
 28 28  0  0  0  0  0  0  0  0999 V2000
   -1.8342    0.2670    8.5919 C   0  0  0  0  0  0  0  0  0  0  0  0
   -0.8753    1.2877    8.0043 C   0  0  0  0  0  0  0  0  0  0  0  0
   -0.7930    1.1730    6.5724 O   0  0  0  0  0  0  0  0  0  0  0  0
    0.0300    0.2295    6.0771 C   0  0  0  0  0  0  0  0  0  0  0  0
    0.7276   -0.4687    6.7768 O   0  0  0  0  0  0  0  0  0  0  0  0
   -0.0042    0.1705    4.5811 C   0  0  0  0  0  0  0  0  0  0  0  0
   -1.2340    0.1767    3.8809 C   0  0  0  0  0  0  0  0  0  0  0  0
   -2.5731    0.2548    4.5749 C   0  0  0  0  0  0  0  0  0  0  0  0
   -1.2091    0.0816    2.4855 C   0  0  0  0  0  0  0  0  0  0  0  0
   -0.0000   -0.0000    1.7839 C   0  0  0  0  0  0  0  0  0  0  0  0
    1.2078    0.0000    2.4933 C   0  0  0  0  0  0  0  0  0  0  0  0
    1.2272    0.0672    3.8892 C   0  0  0  0  0  0  0  0  0  0  0  0
    2.5549    0.0367    4.6052 C   0  0  0  0  0  0  0  0  0  0  0  0
    0.0000    0.0000    0.0000 S   0  0  0  0  0  0  0  0  0  0  0  0
   -2.8367    0.3663    8.1477 H   0  0  0  0  0  0  0  0  0  0  0  0
   -1.9231    0.4180    9.6794 H   0  0  0  0  0  0  0  0  0  0  0  0
   -1.4661   -0.7543    8.4174 H   0  0  0  0  0  0  0  0  0  0  0  0
   -1.2235    2.3152    8.1800 H   0  0  0  0  0  0  0  0  0  0  0  0
    0.1321    1.1694    8.4291 H   0  0  0  0  0  0  0  0  0  0  0  0
   -2.7519    1.2614    4.9801 H   0  0  0  0  0  0  0  0  0  0  0  0
   -3.3818    0.0129    3.8710 H   0  0  0  0  0  0  0  0  0  0  0  0
   -2.6373   -0.4429    5.4231 H   0  0  0  0  0  0  0  0  0  0  0  0
   -2.1466    0.0686    1.9267 H   0  0  0  0  0  0  0  0  0  0  0  0
    2.1471   -0.0608    1.9408 H   0  0  0  0  0  0  0  0  0  0  0  0
    3.3817    0.1030    3.8843 H   0  0  0  0  0  0  0  0  0  0  0  0
    2.6534    0.8666    5.3219 H   0  0  0  0  0  0  0  0  0  0  0  0
    2.6631   -0.8876    5.1905 H   0  0  0  0  0  0  0  0  0  0  0  0
    0.0261   -2.2462   -0.5061 Au  0  0  0  0  0  0  0  0  0  0  0  0
  1 16  1  0  0  0  0
  2 18  1  0  0  0  0
  2 19  1  0  0  0  0
  2  1  1  0  0  0  0
  3  2  1  0  0  0  0
  4  3  1  0  0  0  0
  4  5  2  0  0  0  0
  6  4  1  0  0  0  0
  7  8  1  0  0  0  0
  7  6  2  0  0  0  0
  8 20  1  0  0  0  0
  8 22  1  0  0  0  0
  9  7  1  0  0  0  0
 10  9  2  0  0  0  0
 10 11  1  0  0  0  0
 11 12  2  0  0  0  0
 12  6  1  0  0  0  0
 12 13  1  0  0  0  0
 13 27  1  0  0  0  0
 13 26  1  0  0  0  0
 14 10  1  0  0  0  0
 15  1  1  0  0  0  0
 17  1  1  0  0  0  0
 21  8  1  0  0  0  0
 23  9  1  0  0  0  0
 24 11  1  0  0  0  0
 25 13  1  0  0  0  0
 28 14  1  0  0  0  0
M  END
