313482784.xyz
 OpenBabel07262113483D
OC(=O)c1cc(S)c(cc1C(F)(F)F)C(F)(F)F
 22 22  0  0  0  0  0  0  0  0999 V2000
    3.6567    0.4038    3.6226 O   0  0  0  0  0  0  0  0  0  0  0  0
    2.7325   -0.1577    4.4277 C   0  0  0  0  0  0  0  0  0  0  0  0
    3.0113   -0.6744    5.4780 O   0  0  0  0  0  0  0  0  0  0  0  0
    1.3561   -0.0863    3.8323 C   0  0  0  0  0  0  0  0  0  0  0  0
    1.2409    0.0000    2.4409 C   0  0  0  0  0  0  0  0  0  0  0  0
    0.0000    0.0000    1.7885 C   0  0  0  0  0  0  0  0  0  0  0  0
    0.0000    0.0000    0.0000 S   0  0  0  0  0  0  0  0  0  0  0  0
   -1.1667   -0.0838    2.5749 C   0  0  0  0  0  0  0  0  0  0  0  0
   -1.0568   -0.1416    3.9657 C   0  0  0  0  0  0  0  0  0  0  0  0
    0.1815   -0.1458    4.6108 C   0  0  0  0  0  0  0  0  0  0  0  0
    0.1829   -0.1824    6.1325 C   0  0  0  0  0  0  0  0  0  0  0  0
   -1.0571    0.0498    6.6112 F   0  0  0  0  0  0  0  0  0  0  0  0
    0.9773    0.7654    6.6475 F   0  0  0  0  0  0  0  0  0  0  0  0
    0.5637   -1.3693    6.6108 F   0  0  0  0  0  0  0  0  0  0  0  0
   -2.5560   -0.1011    1.9618 C   0  0  0  0  0  0  0  0  0  0  0  0
   -2.7187   -1.1274    1.1206 F   0  0  0  0  0  0  0  0  0  0  0  0
   -3.5044   -0.2108    2.9094 F   0  0  0  0  0  0  0  0  0  0  0  0
   -2.8150    1.0331    1.2862 F   0  0  0  0  0  0  0  0  0  0  0  0
    4.5164    0.2771    4.0591 H   0  0  0  0  0  0  0  0  0  0  0  0
    2.1450    0.0645    1.8377 H   0  0  0  0  0  0  0  0  0  0  0  0
   -0.2728    2.2411   -0.4620 Au  0  0  0  0  0  0  0  0  0  0  0  0
   -1.9635   -0.1800    4.5645 H   0  0  0  0  0  0  0  0  0  0  0  0
  1 19  1  0  0  0  0
  1  2  1  0  0  0  0
  2  3  2  0  0  0  0
  4  2  1  0  0  0  0
  4 10  2  0  0  0  0
  5  4  1  0  0  0  0
  6  5  2  0  0  0  0
  6  8  1  0  0  0  0
  7  6  1  0  0  0  0
  8  9  2  0  0  0  0
  9 22  1  0  0  0  0
  9 10  1  0  0  0  0
 10 11  1  0  0  0  0
 11 14  1  0  0  0  0
 11 12  1  0  0  0  0
 11 13  1  0  0  0  0
 15  8  1  0  0  0  0
 15 17  1  0  0  0  0
 16 15  1  0  0  0  0
 18 15  1  0  0  0  0
 20  5  1  0  0  0  0
 21  7  1  0  0  0  0
M  END
