313471548.xyz
 OpenBabel07262113483D
Cc1c(CC(=O)OC)ccc(c1C)S
 28 28  0  0  0  0  0  0  0  0999 V2000
   -2.3774    0.1102    4.7686 C   0  0  0  0  0  0  0  0  0  0  0  0
   -1.1038    0.0937    3.9579 C   0  0  0  0  0  0  0  0  0  0  0  0
    0.1601    0.1189    4.5853 C   0  0  0  0  0  0  0  0  0  0  0  0
    0.3132    0.2082    6.0830 C   0  0  0  0  0  0  0  0  0  0  0  0
   -0.0669    1.5607    6.6650 C   0  0  0  0  0  0  0  0  0  0  0  0
   -0.7596    2.3923    6.1354 O   0  0  0  0  0  0  0  0  0  0  0  0
    0.4584    1.7087    7.8953 O   0  0  0  0  0  0  0  0  0  0  0  0
    0.1366    2.9235    8.5727 C   0  0  0  0  0  0  0  0  0  0  0  0
    1.3229    0.0782    3.8037 C   0  0  0  0  0  0  0  0  0  0  0  0
    1.2504   -0.0000    2.4203 C   0  0  0  0  0  0  0  0  0  0  0  0
    0.0000   -0.0000    1.7819 C   0  0  0  0  0  0  0  0  0  0  0  0
   -1.1902    0.0651    2.5466 C   0  0  0  0  0  0  0  0  0  0  0  0
   -2.5363    0.0804    1.8740 C   0  0  0  0  0  0  0  0  0  0  0  0
    0.0000    0.0000    0.0000 S   0  0  0  0  0  0  0  0  0  0  0  0
   -2.2042   -0.1318    5.8239 H   0  0  0  0  0  0  0  0  0  0  0  0
   -3.1107   -0.6116    4.3795 H   0  0  0  0  0  0  0  0  0  0  0  0
   -2.8429    1.1086    4.7464 H   0  0  0  0  0  0  0  0  0  0  0  0
    1.3475   -0.0086    6.3849 H   0  0  0  0  0  0  0  0  0  0  0  0
   -0.3096   -0.5393    6.6045 H   0  0  0  0  0  0  0  0  0  0  0  0
    0.6375    2.8731    9.5471 H   0  0  0  0  0  0  0  0  0  0  0  0
   -0.9516    3.0203    8.7059 H   0  0  0  0  0  0  0  0  0  0  0  0
    0.4940    3.7942    8.0027 H   0  0  0  0  0  0  0  0  0  0  0  0
    2.2997    0.0948    4.2940 H   0  0  0  0  0  0  0  0  0  0  0  0
    2.1560   -0.0601    1.8148 H   0  0  0  0  0  0  0  0  0  0  0  0
   -2.9712   -0.9356    1.8347 H   0  0  0  0  0  0  0  0  0  0  0  0
   -2.4486    0.4314    0.8389 H   0  0  0  0  0  0  0  0  0  0  0  0
   -3.2515    0.7215    2.4073 H   0  0  0  0  0  0  0  0  0  0  0  0
   -0.6566   -2.1483   -0.5286 Au  0  0  0  0  0  0  0  0  0  0  0  0
  1 15  1  0  0  0  0
  2  3  1  0  0  0  0
  2  1  1  0  0  0  0
  3  4  1  0  0  0  0
  4 18  1  0  0  0  0
  4 19  1  0  0  0  0
  4  5  1  0  0  0  0
  5  7  1  0  0  0  0
  6  5  2  0  0  0  0
  7  8  1  0  0  0  0
  8 21  1  0  0  0  0
  8 20  1  0  0  0  0
  9 23  1  0  0  0  0
  9  3  2  0  0  0  0
 10  9  1  0  0  0  0
 11 10  2  0  0  0  0
 11 12  1  0  0  0  0
 12  2  2  0  0  0  0
 13 27  1  0  0  0  0
 13 12  1  0  0  0  0
 14 11  1  0  0  0  0
 16  1  1  0  0  0  0
 17  1  1  0  0  0  0
 22  8  1  0  0  0  0
 24 10  1  0  0  0  0
 25 13  1  0  0  0  0
 26 13  1  0  0  0  0
 28 14  1  0  0  0  0
M  END
