313420981.xyz
 OpenBabel07262113483D
FC(c1cc(OC(F)(F)F)c(c(c1)S)C(=O)O)F
 23 23  0  0  0  0  0  0  0  0999 V2000
   -2.6772    1.1262    5.5762 F   0  0  0  0  0  0  0  0  0  0  0  0
   -2.7504    0.4420    4.4038 C   0  0  0  0  0  0  0  0  0  0  0  0
   -1.3809    0.3221    3.7771 C   0  0  0  0  0  0  0  0  0  0  0  0
   -0.2405    0.3455    4.5797 C   0  0  0  0  0  0  0  0  0  0  0  0
    1.0012    0.1896    3.9738 C   0  0  0  0  0  0  0  0  0  0  0  0
    2.1447    0.3151    4.7736 O   0  0  0  0  0  0  0  0  0  0  0  0
    2.5774   -0.7785    5.4622 C   0  0  0  0  0  0  0  0  0  0  0  0
    3.7137   -0.4540    6.0534 F   0  0  0  0  0  0  0  0  0  0  0  0
    1.6933   -1.1572    6.3926 F   0  0  0  0  0  0  0  0  0  0  0  0
    2.7802   -1.8222    4.6532 F   0  0  0  0  0  0  0  0  0  0  0  0
    1.1666    0.0000    2.5932 C   0  0  0  0  0  0  0  0  0  0  0  0
   -0.0000    0.0000    1.7849 C   0  0  0  0  0  0  0  0  0  0  0  0
   -1.2546    0.1596    2.3970 C   0  0  0  0  0  0  0  0  0  0  0  0
    0.0000    0.0000    0.0000 S   0  0  0  0  0  0  0  0  0  0  0  0
    2.5465   -0.2484    2.0209 C   0  0  0  0  0  0  0  0  0  0  0  0
    2.7868   -1.1342    1.2440 O   0  0  0  0  0  0  0  0  0  0  0  0
    3.5233    0.5730    2.4311 O   0  0  0  0  0  0  0  0  0  0  0  0
   -3.5958    1.1052    3.5739 F   0  0  0  0  0  0  0  0  0  0  0  0
   -3.1982   -0.5455    4.6198 H   0  0  0  0  0  0  0  0  0  0  0  0
   -0.3036    0.4989    5.6558 H   0  0  0  0  0  0  0  0  0  0  0  0
   -2.1423    0.1653    1.7644 H   0  0  0  0  0  0  0  0  0  0  0  0
    0.7364   -2.1342   -0.4990 Au  0  0  0  0  0  0  0  0  0  0  0  0
    3.2191    1.1398    3.1565 H   0  0  0  0  0  0  0  0  0  0  0  0
  2 19  1  0  0  0  0
  2  1  1  0  0  0  0
  3  2  1  0  0  0  0
  3  4  2  0  0  0  0
  4 20  1  0  0  0  0
  5  4  1  0  0  0  0
  5  6  1  0  0  0  0
  6  7  1  0  0  0  0
  7  8  1  0  0  0  0
  7  9  1  0  0  0  0
 10  7  1  0  0  0  0
 11  5  2  0  0  0  0
 12 13  2  0  0  0  0
 12 11  1  0  0  0  0
 13  3  1  0  0  0  0
 14 12  1  0  0  0  0
 15 17  1  0  0  0  0
 15 11  1  0  0  0  0
 16 15  2  0  0  0  0
 17 23  1  0  0  0  0
 18  2  1  0  0  0  0
 21 13  1  0  0  0  0
 22 14  1  0  0  0  0
M  END
