313475902.xyz
 OpenBabel07262113483D
COC(=O)Cc1ccc(c(c1C(F)(F)F)OC)S
 29 29  0  0  0  0  0  0  0  0999 V2000
   -0.0122    2.2910    8.7368 C   0  0  0  0  0  0  0  0  0  0  0  0
    0.0637    1.0605    8.0170 O   0  0  0  0  0  0  0  0  0  0  0  0
   -0.3503    1.1000    6.7408 C   0  0  0  0  0  0  0  0  0  0  0  0
   -0.7808    2.0884    6.2043 O   0  0  0  0  0  0  0  0  0  0  0  0
   -0.2463   -0.2753    6.0976 C   0  0  0  0  0  0  0  0  0  0  0  0
   -0.1095   -0.1990    4.5956 C   0  0  0  0  0  0  0  0  0  0  0  0
   -1.2756   -0.1900    3.8263 C   0  0  0  0  0  0  0  0  0  0  0  0
   -1.2291   -0.0745    2.4411 C   0  0  0  0  0  0  0  0  0  0  0  0
    0.0000   -0.0000    1.7766 C   0  0  0  0  0  0  0  0  0  0  0  0
    1.1954    0.0000    2.5361 C   0  0  0  0  0  0  0  0  0  0  0  0
    1.1402   -0.0808    3.9419 C   0  0  0  0  0  0  0  0  0  0  0  0
    2.3928   -0.0685    4.7987 C   0  0  0  0  0  0  0  0  0  0  0  0
    2.5502   -1.2556    5.4340 F   0  0  0  0  0  0  0  0  0  0  0  0
    3.5307    0.1624    4.1437 F   0  0  0  0  0  0  0  0  0  0  0  0
    2.3089    0.8744    5.7645 F   0  0  0  0  0  0  0  0  0  0  0  0
    2.3784    0.1583    1.8857 O   0  0  0  0  0  0  0  0  0  0  0  0
    3.0076   -1.0315    1.4197 C   0  0  0  0  0  0  0  0  0  0  0  0
    0.0000    0.0000    0.0000 S   0  0  0  0  0  0  0  0  0  0  0  0
    0.3472    2.0755    9.7503 H   0  0  0  0  0  0  0  0  0  0  0  0
    0.6198    3.0560    8.2613 H   0  0  0  0  0  0  0  0  0  0  0  0
   -1.0469    2.6643    8.7670 H   0  0  0  0  0  0  0  0  0  0  0  0
    0.5623   -0.8341    6.5801 H   0  0  0  0  0  0  0  0  0  0  0  0
   -1.1821   -0.8024    6.3464 H   0  0  0  0  0  0  0  0  0  0  0  0
   -2.2423   -0.2547    4.3296 H   0  0  0  0  0  0  0  0  0  0  0  0
   -2.1492   -0.0421    1.8549 H   0  0  0  0  0  0  0  0  0  0  0  0
    3.9164   -0.7182    0.8897 H   0  0  0  0  0  0  0  0  0  0  0  0
    2.3493   -1.5767    0.7249 H   0  0  0  0  0  0  0  0  0  0  0  0
    3.2861   -1.6820    2.2657 H   0  0  0  0  0  0  0  0  0  0  0  0
    1.2725    1.8586   -0.5046 Au  0  0  0  0  0  0  0  0  0  0  0  0
  1 21  1  0  0  0  0
  1 19  1  0  0  0  0
  2  1  1  0  0  0  0
  3  2  1  0  0  0  0
  4  3  2  0  0  0  0
  5 23  1  0  0  0  0
  5 22  1  0  0  0  0
  5  3  1  0  0  0  0
  6  5  1  0  0  0  0
  7 24  1  0  0  0  0
  7  6  2  0  0  0  0
  8  7  1  0  0  0  0
  9  8  2  0  0  0  0
  9 10  1  0  0  0  0
 10 11  2  0  0  0  0
 11  6  1  0  0  0  0
 11 12  1  0  0  0  0
 12 13  1  0  0  0  0
 12 15  1  0  0  0  0
 14 12  1  0  0  0  0
 16 10  1  0  0  0  0
 17 16  1  0  0  0  0
 17 28  1  0  0  0  0
 18  9  1  0  0  0  0
 20  1  1  0  0  0  0
 25  8  1  0  0  0  0
 26 17  1  0  0  0  0
 27 17  1  0  0  0  0
 29 18  1  0  0  0  0
M  END
