313485617.xyz
 OpenBabel07262113483D
COC(=O)c1cc(cc(c1S)OC(F)(F)F)C(F)(F)F
 26 26  0  0  0  0  0  0  0  0999 V2000
   -3.8134    0.8373   -0.0026 C   0  0  0  0  0  0  0  0  0  0  0  0
   -2.5723    0.7557    0.6989 O   0  0  0  0  0  0  0  0  0  0  0  0
   -2.5829    0.0981    1.8648 C   0  0  0  0  0  0  0  0  0  0  0  0
   -3.5854   -0.3402    2.3762 O   0  0  0  0  0  0  0  0  0  0  0  0
   -1.2258    0.0276    2.4972 C   0  0  0  0  0  0  0  0  0  0  0  0
   -1.2352   -0.0096    3.8958 C   0  0  0  0  0  0  0  0  0  0  0  0
   -0.0498   -0.0423    4.6238 C   0  0  0  0  0  0  0  0  0  0  0  0
    1.1681   -0.0346    3.9427 C   0  0  0  0  0  0  0  0  0  0  0  0
    1.1815   -0.0000    2.5540 C   0  0  0  0  0  0  0  0  0  0  0  0
   -0.0000   -0.0000    1.7773 C   0  0  0  0  0  0  0  0  0  0  0  0
    0.0000    0.0000    0.0000 S   0  0  0  0  0  0  0  0  0  0  0  0
    2.4192   -0.0450    1.9212 O   0  0  0  0  0  0  0  0  0  0  0  0
    3.1435    1.0989    1.8207 C   0  0  0  0  0  0  0  0  0  0  0  0
    4.1447    0.8629    0.9819 F   0  0  0  0  0  0  0  0  0  0  0  0
    2.4207    2.1224    1.3669 F   0  0  0  0  0  0  0  0  0  0  0  0
    3.6590    1.4648    3.0046 F   0  0  0  0  0  0  0  0  0  0  0  0
   -0.0725   -0.1375    6.1271 C   0  0  0  0  0  0  0  0  0  0  0  0
   -0.0507   -1.4187    6.5393 F   0  0  0  0  0  0  0  0  0  0  0  0
    0.9952    0.4687    6.6751 F   0  0  0  0  0  0  0  0  0  0  0  0
   -1.1752    0.4260    6.6440 F   0  0  0  0  0  0  0  0  0  0  0  0
   -3.5990    1.3729   -0.9346 H   0  0  0  0  0  0  0  0  0  0  0  0
   -4.2028   -0.1689   -0.2161 H   0  0  0  0  0  0  0  0  0  0  0  0
   -4.5578    1.3833    0.5953 H   0  0  0  0  0  0  0  0  0  0  0  0
   -2.2016   -0.0122    4.4003 H   0  0  0  0  0  0  0  0  0  0  0  0
    2.1158   -0.0460    4.4802 H   0  0  0  0  0  0  0  0  0  0  0  0
    1.7967   -1.3144   -0.6181 Au  0  0  0  0  0  0  0  0  0  0  0  0
  1 23  1  0  0  0  0
  1  2  1  0  0  0  0
  2  3  1  0  0  0  0
  3  4  2  0  0  0  0
  3  5  1  0  0  0  0
  5  6  1  0  0  0  0
  6 24  1  0  0  0  0
  6  7  2  0  0  0  0
  7 17  1  0  0  0  0
  8 25  1  0  0  0  0
  8  7  1  0  0  0  0
  9  8  2  0  0  0  0
 10  5  2  0  0  0  0
 10  9  1  0  0  0  0
 11 10  1  0  0  0  0
 12  9  1  0  0  0  0
 13 12  1  0  0  0  0
 13 16  1  0  0  0  0
 14 13  1  0  0  0  0
 15 13  1  0  0  0  0
 17 18  1  0  0  0  0
 17 20  1  0  0  0  0
 17 19  1  0  0  0  0
 21  1  1  0  0  0  0
 22  1  1  0  0  0  0
 26 11  1  0  0  0  0
M  END
