313418937.xyz
 OpenBabel07262113483D
FC(c1cc(cc(c1C(F)(F)F)S)C(=O)O)F
 22 22  0  0  0  0  0  0  0  0999 V2000
    2.6677   -0.9110    5.3620 F   0  0  0  0  0  0  0  0  0  0  0  0
    2.0107    0.2460    5.1012 C   0  0  0  0  0  0  0  0  0  0  0  0
    0.9299    0.0690    4.0450 C   0  0  0  0  0  0  0  0  0  0  0  0
   -0.3662   -0.0019    4.5632 C   0  0  0  0  0  0  0  0  0  0  0  0
   -1.4804   -0.1127    3.7281 C   0  0  0  0  0  0  0  0  0  0  0  0
   -1.2867   -0.0617    2.3505 C   0  0  0  0  0  0  0  0  0  0  0  0
   -0.0000   -0.0000    1.7905 C   0  0  0  0  0  0  0  0  0  0  0  0
    1.1338    0.0000    2.6466 C   0  0  0  0  0  0  0  0  0  0  0  0
    2.5512   -0.0155    2.0768 C   0  0  0  0  0  0  0  0  0  0  0  0
    3.4212   -0.5756    2.9225 F   0  0  0  0  0  0  0  0  0  0  0  0
    2.9823    1.2388    1.8219 F   0  0  0  0  0  0  0  0  0  0  0  0
    2.6404   -0.7093    0.9393 F   0  0  0  0  0  0  0  0  0  0  0  0
    0.0000    0.0000    0.0000 S   0  0  0  0  0  0  0  0  0  0  0  0
   -2.8919   -0.1833    4.2463 C   0  0  0  0  0  0  0  0  0  0  0  0
   -3.8442    0.1445    3.5934 O   0  0  0  0  0  0  0  0  0  0  0  0
   -3.0389   -0.6428    5.5081 O   0  0  0  0  0  0  0  0  0  0  0  0
    2.9166    1.1881    4.7436 F   0  0  0  0  0  0  0  0  0  0  0  0
    1.5450    0.5789    6.0451 H   0  0  0  0  0  0  0  0  0  0  0  0
   -0.4955    0.0766    5.6459 H   0  0  0  0  0  0  0  0  0  0  0  0
   -2.1593   -0.0536    1.6965 H   0  0  0  0  0  0  0  0  0  0  0  0
    1.0306    1.9871   -0.5424 Au  0  0  0  0  0  0  0  0  0  0  0  0
   -2.2090   -1.0168    5.8358 H   0  0  0  0  0  0  0  0  0  0  0  0
  2  1  1  0  0  0  0
  2 18  1  0  0  0  0
  3  4  1  0  0  0  0
  3  2  1  0  0  0  0
  4 19  1  0  0  0  0
  5 14  1  0  0  0  0
  5  4  2  0  0  0  0
  6  5  1  0  0  0  0
  7  6  2  0  0  0  0
  7  8  1  0  0  0  0
  8  3  2  0  0  0  0
  9  8  1  0  0  0  0
  9 10  1  0  0  0  0
 11  9  1  0  0  0  0
 12  9  1  0  0  0  0
 13  7  1  0  0  0  0
 14 16  1  0  0  0  0
 15 14  2  0  0  0  0
 16 22  1  0  0  0  0
 17  2  1  0  0  0  0
 20  6  1  0  0  0  0
 21 13  1  0  0  0  0
M  END
