313481259.xyz
 OpenBabel07262113483D
COc1cc(cc(c1S)OC)C(=O)O
 24 24  0  0  0  0  0  0  0  0999 V2000
   -3.6142   -0.0826    2.3366 C   0  0  0  0  0  0  0  0  0  0  0  0
   -2.3500   -0.0470    1.7075 O   0  0  0  0  0  0  0  0  0  0  0  0
   -1.2364   -0.0656    2.4605 C   0  0  0  0  0  0  0  0  0  0  0  0
   -1.2570   -0.1531    3.8582 C   0  0  0  0  0  0  0  0  0  0  0  0
   -0.0580   -0.1819    4.5726 C   0  0  0  0  0  0  0  0  0  0  0  0
    1.1739   -0.0892    3.9103 C   0  0  0  0  0  0  0  0  0  0  0  0
    1.2044    0.0000    2.5122 C   0  0  0  0  0  0  0  0  0  0  0  0
   -0.0000    0.0000    1.7644 C   0  0  0  0  0  0  0  0  0  0  0  0
    0.0000    0.0000    0.0000 S   0  0  0  0  0  0  0  0  0  0  0  0
    2.3444    0.1339    1.8058 O   0  0  0  0  0  0  0  0  0  0  0  0
    3.5872    0.1211    2.4723 C   0  0  0  0  0  0  0  0  0  0  0  0
   -0.1524   -0.2806    6.0679 C   0  0  0  0  0  0  0  0  0  0  0  0
   -1.1409    0.0057    6.6902 O   0  0  0  0  0  0  0  0  0  0  0  0
    0.9553   -0.7269    6.7053 O   0  0  0  0  0  0  0  0  0  0  0  0
   -3.7582    0.7798    3.0101 H   0  0  0  0  0  0  0  0  0  0  0  0
   -3.7554   -1.0135    2.9127 H   0  0  0  0  0  0  0  0  0  0  0  0
   -4.3585   -0.0403    1.5314 H   0  0  0  0  0  0  0  0  0  0  0  0
   -2.1860   -0.1980    4.4223 H   0  0  0  0  0  0  0  0  0  0  0  0
    2.1031   -0.0370    4.4766 H   0  0  0  0  0  0  0  0  0  0  0  0
    1.0340    1.9988   -0.5120 Au  0  0  0  0  0  0  0  0  0  0  0  0
    3.7451   -0.8259    3.0178 H   0  0  0  0  0  0  0  0  0  0  0  0
    4.3550    0.2193    1.6946 H   0  0  0  0  0  0  0  0  0  0  0  0
    3.6807    0.9640    3.1794 H   0  0  0  0  0  0  0  0  0  0  0  0
    1.5909   -1.0654    6.0590 H   0  0  0  0  0  0  0  0  0  0  0  0
  1 16  1  0  0  0  0
  1 15  1  0  0  0  0
  2  1  1  0  0  0  0
  2  3  1  0  0  0  0
  3  4  1  0  0  0  0
  4 18  1  0  0  0  0
  4  5  2  0  0  0  0
  5 12  1  0  0  0  0
  6 19  1  0  0  0  0
  6  5  1  0  0  0  0
  7  6  2  0  0  0  0
  8  3  2  0  0  0  0
  8  7  1  0  0  0  0
  9  8  1  0  0  0  0
 10 11  1  0  0  0  0
 10  7  1  0  0  0  0
 11 21  1  0  0  0  0
 11 23  1  0  0  0  0
 12 13  2  0  0  0  0
 12 14  1  0  0  0  0
 17  1  1  0  0  0  0
 20  9  1  0  0  0  0
 22 11  1  0  0  0  0
 24 14  1  0  0  0  0
M  END
