313515009.xyz
 OpenBabel07262113483D
COC(=O)c1cc(C)c(cc1S)OC(F)F
 26 26  0  0  0  0  0  0  0  0999 V2000
   -4.1051    0.6737    0.5453 C   0  0  0  0  0  0  0  0  0  0  0  0
   -2.7938    0.6778    1.1058 O   0  0  0  0  0  0  0  0  0  0  0  0
   -2.5632   -0.2019    2.0895 C   0  0  0  0  0  0  0  0  0  0  0  0
   -3.4245   -0.9036    2.5656 O   0  0  0  0  0  0  0  0  0  0  0  0
   -1.1512   -0.1728    2.5891 C   0  0  0  0  0  0  0  0  0  0  0  0
   -1.0024   -0.3734    3.9689 C   0  0  0  0  0  0  0  0  0  0  0  0
    0.2403   -0.3570    4.6079 C   0  0  0  0  0  0  0  0  0  0  0  0
    0.3887   -0.5468    6.0907 C   0  0  0  0  0  0  0  0  0  0  0  0
    1.3657   -0.1579    3.7924 C   0  0  0  0  0  0  0  0  0  0  0  0
    1.2562   -0.0000    2.4145 C   0  0  0  0  0  0  0  0  0  0  0  0
    0.0000    0.0000    1.7848 C   0  0  0  0  0  0  0  0  0  0  0  0
    0.0000    0.0000    0.0000 S   0  0  0  0  0  0  0  0  0  0  0  0
    2.6199   -0.1803    4.3831 O   0  0  0  0  0  0  0  0  0  0  0  0
    3.2752    1.0166    4.4899 C   0  0  0  0  0  0  0  0  0  0  0  0
    2.7415    1.7561    5.4981 F   0  0  0  0  0  0  0  0  0  0  0  0
    4.5454    0.7491    4.8036 F   0  0  0  0  0  0  0  0  0  0  0  0
   -4.8535    0.9556    1.3010 H   0  0  0  0  0  0  0  0  0  0  0  0
   -4.0863    1.4069   -0.2701 H   0  0  0  0  0  0  0  0  0  0  0  0
   -4.3569   -0.3244    0.1580 H   0  0  0  0  0  0  0  0  0  0  0  0
   -1.9060   -0.5446    4.5568 H   0  0  0  0  0  0  0  0  0  0  0  0
   -0.5886   -0.6984    6.5686 H   0  0  0  0  0  0  0  0  0  0  0  0
    0.8773    0.3274    6.5473 H   0  0  0  0  0  0  0  0  0  0  0  0
    1.0287   -1.4155    6.3129 H   0  0  0  0  0  0  0  0  0  0  0  0
    2.1562    0.1008    1.8065 H   0  0  0  0  0  0  0  0  0  0  0  0
   -0.4852    2.1936   -0.5185 Au  0  0  0  0  0  0  0  0  0  0  0  0
    3.2269    1.6212    3.5662 H   0  0  0  0  0  0  0  0  0  0  0  0
  1  2  1  0  0  0  0
  1 17  1  0  0  0  0
  2  3  1  0  0  0  0
  3  4  2  0  0  0  0
  3  5  1  0  0  0  0
  5  6  2  0  0  0  0
  6 20  1  0  0  0  0
  6  7  1  0  0  0  0
  7  8  1  0  0  0  0
  8 23  1  0  0  0  0
  8 22  1  0  0  0  0
  8 21  1  0  0  0  0
  9 13  1  0  0  0  0
  9  7  2  0  0  0  0
 10  9  1  0  0  0  0
 11 10  2  0  0  0  0
 11  5  1  0  0  0  0
 12 11  1  0  0  0  0
 13 14  1  0  0  0  0
 14 16  1  0  0  0  0
 14 15  1  0  0  0  0
 18  1  1  0  0  0  0
 19  1  1  0  0  0  0
 24 10  1  0  0  0  0
 25 12  1  0  0  0  0
 26 14  1  0  0  0  0
M  END
