313577410.xyz
 OpenBabel07262113483D
Cc1cnc(s1)C(n1cc(nc1S)C)C
 28 29  0  0  1  0  0  0  0  0999 V2000
   -4.9856    4.5254    3.5000 C   0  0  0  0  0  0  0  0  0  0  0  0
   -4.4527    3.1375    3.3420 C   0  0  1  0  0  0  0  0  0  0  0  0
   -4.6440    2.0448    4.1523 C   0  0  0  0  0  0  0  0  0  0  0  0
   -4.0356    0.8806    3.7597 N   0  0  0  0  0  0  0  0  0  0  0  0
   -3.3742    1.0369    2.6512 C   0  0  0  0  0  0  0  0  0  0  0  0
   -3.4453    2.6627    2.0010 S   0  0  0  0  0  0  0  0  0  0  0  0
   -2.5388   -0.0304    1.9930 C   0  0  1  0  0  0  0  0  0  0  0  0
   -1.1623    0.0357    2.4943 N   0  0  0  0  0  0  0  0  0  0  0  0
   -0.7810    0.0563    3.8095 C   0  0  0  0  0  0  0  0  0  0  0  0
    0.6102    0.0417    3.8101 C   0  0  0  0  0  0  0  0  0  0  0  0
    1.0684    0.0000    2.5265 N   0  0  0  0  0  0  0  0  0  0  0  0
    0.0000    0.0000    1.7397 C   0  0  0  0  0  0  0  0  0  0  0  0
    0.0000    0.0000    0.0000 S   0  0  0  0  0  0  0  0  0  0  0  0
    1.5353    0.0745    4.9836 C   0  0  0  0  0  0  0  0  0  0  0  0
   -3.1267   -1.4279    2.1805 C   0  0  0  0  0  0  0  0  0  0  0  0
   -4.1752    5.2682    3.5792 H   0  0  0  0  0  0  0  0  0  0  0  0
   -5.6212    4.8191    2.6487 H   0  0  0  0  0  0  0  0  0  0  0  0
   -5.5934    4.5877    4.4145 H   0  0  0  0  0  0  0  0  0  0  0  0
   -5.2422    2.0621    5.0656 H   0  0  0  0  0  0  0  0  0  0  0  0
   -2.4564    0.1900    0.9194 H   0  0  0  0  0  0  0  0  0  0  0  0
   -1.5124    0.0971    4.6127 H   0  0  0  0  0  0  0  0  0  0  0  0
   -0.2434   -2.2488   -0.5258 Au  0  0  0  0  0  0  0  0  0  0  0  0
    2.1653    0.9787    4.9604 H   0  0  0  0  0  0  0  0  0  0  0  0
    0.9782    0.0642    5.9316 H   0  0  0  0  0  0  0  0  0  0  0  0
    2.2154   -0.7921    4.9673 H   0  0  0  0  0  0  0  0  0  0  0  0
   -2.4735   -2.1697    1.6967 H   0  0  0  0  0  0  0  0  0  0  0  0
   -4.1259   -1.4827    1.7248 H   0  0  0  0  0  0  0  0  0  0  0  0
   -3.2224   -1.6671    3.2484 H   0  0  0  0  0  0  0  0  0  0  0  0
  1 16  1  0  0  0  0
  1 18  1  0  0  0  0
  2  1  1  6  0  0  0
  2  3  1  0  0  0  0
  3 19  1  0  0  0  0
  4  3  2  0  0  0  0
  5  4  2  0  0  0  0
  6  5  1  0  0  0  0
  6  2  1  0  0  0  0
  7 20  1  6  0  0  0
  7 15  1  0  0  0  0
  7  8  1  0  0  0  0
  7  5  1  0  0  0  0
  8  9  1  0  0  0  0
  9 10  1  0  0  0  0
  9 21  1  0  0  0  0
 10 14  1  0  0  0  0
 11 10  2  0  0  0  0
 12  8  1  0  0  0  0
 12 11  2  0  0  0  0
 13 12  1  0  0  0  0
 14 24  1  0  0  0  0
 15 28  1  0  0  0  0
 17  1  1  0  0  0  0
 22 13  1  0  0  0  0
 23 14  1  0  0  0  0
 25 14  1  0  0  0  0
 26 15  1  0  0  0  0
 27 15  1  0  0  0  0
M  RAD  2   2   2   9   2
M  END
