313513808.xyz
 OpenBabel07262113483D
O[C@@H]1[C@@H]2O[P@@](=O)(S)OC[C@H]2O[C@H]1n1cnc2c1ncnc2N
 34 37  0  0  1  0  0  0  0  0999 V2000
   -0.4304    3.8402    4.0600 O   0  0  0  0  0  0  0  0  0  0  0  0
    0.0520    3.9152    2.7407 C   0  0  2  0  0  0  0  0  0  0  0  0
    0.4252    2.5419    2.2073 C   0  0  2  0  0  0  0  0  0  0  0  0
   -0.4890    1.5105    2.5582 O   0  0  0  0  0  0  0  0  0  0  0  0
   -0.0000    0.0000    2.1116 P   0  0  1  0  0  0  0  0  0  0  0  0
   -0.7600   -1.0534    2.8087 O   0  0  0  0  0  0  0  0  0  0  0  0
    0.0000    0.0000    0.0000 S   0  0  0  0  0  0  0  0  0  0  0  0
    1.5989    0.0000    2.4140 O   0  0  0  0  0  0  0  0  0  0  0  0
    2.4728    1.1329    2.2387 C   0  0  0  0  0  0  0  0  0  0  0  0
    1.7750    2.3173    2.8762 C   0  0  1  0  0  0  0  0  0  0  0  0
    2.4308    3.5571    2.7157 O   0  0  0  0  0  0  0  0  0  0  0  0
    1.4517    4.5940    2.7833 C   0  0  1  0  0  0  0  0  0  0  0  0
    1.7009    5.5524    1.7369 N   0  0  0  0  0  0  0  0  0  0  0  0
    2.2548    6.8150    1.9053 C   0  0  0  0  0  0  0  0  0  0  0  0
    2.4682    7.4485    0.7828 N   0  0  0  0  0  0  0  0  0  0  0  0
    2.0522    6.5655   -0.1950 C   0  0  0  0  0  0  0  0  0  0  0  0
    1.5760    5.3735    0.3690 C   0  0  0  0  0  0  0  0  0  0  0  0
    1.1022    4.3212   -0.3047 N   0  0  0  0  0  0  0  0  0  0  0  0
    1.1261    4.5105   -1.6267 C   0  0  0  0  0  0  0  0  0  0  0  0
    1.5495    5.5876   -2.2967 N   0  0  0  0  0  0  0  0  0  0  0  0
    2.0203    6.6411   -1.6087 C   0  0  0  0  0  0  0  0  0  0  0  0
    2.4461    7.7326   -2.2766 N   0  0  0  0  0  0  0  0  0  0  0  0
   -1.0059    3.0608    4.1091 H   0  0  0  0  0  0  0  0  0  0  0  0
   -0.6373    4.4625    2.0751 H   0  0  0  0  0  0  0  0  0  0  0  0
    0.5493    2.6099    1.1155 H   0  0  0  0  0  0  0  0  0  0  0  0
   -2.2879    0.1211   -0.2324 Au  0  0  0  0  0  0  0  0  0  0  0  0
    3.4191    0.8723    2.7310 H   0  0  0  0  0  0  0  0  0  0  0  0
    2.6582    1.3189    1.1679 H   0  0  0  0  0  0  0  0  0  0  0  0
    1.6050    2.0938    3.9466 H   0  0  0  0  0  0  0  0  0  0  0  0
    1.5302    5.1331    3.7409 H   0  0  0  0  0  0  0  0  0  0  0  0
    2.4681    7.1966    2.9048 H   0  0  0  0  0  0  0  0  0  0  0  0
    0.7534    3.6802   -2.2374 H   0  0  0  0  0  0  0  0  0  0  0  0
    2.4174    7.7340   -3.2871 H   0  0  0  0  0  0  0  0  0  0  0  0
    2.8148    8.5232   -1.7670 H   0  0  0  0  0  0  0  0  0  0  0  0
  1 23  1  0  0  0  0
  2  3  1  6  0  0  0
  2  1  1  0  0  0  0
  3  4  1  0  0  0  0
  3 10  1  1  0  0  0
  5  8  1  0  0  0  0
  5  4  1  0  0  0  0
  5  6  2  1  0  0  0
  7  5  1  0  0  0  0
  9  8  1  0  0  0  0
  9 27  1  0  0  0  0
  9 10  1  0  0  0  0
 10 29  1  1  0  0  0
 11 12  1  0  0  0  0
 11 10  1  0  0  0  0
 12  2  1  6  0  0  0
 12 30  1  0  0  0  0
 13 14  1  0  0  0  0
 13 12  1  0  0  0  0
 14 31  1  0  0  0  0
 15 14  2  0  0  0  0
 16 17  1  0  0  0  0
 16 15  2  0  0  0  0
 17 13  1  0  0  0  0
 18 17  2  0  0  0  0
 19 18  2  0  0  0  0
 20 19  2  0  0  0  0
 20 21  2  0  0  0  0
 21 16  1  0  0  0  0
 22 34  1  0  0  0  0
 22 21  1  0  0  0  0
 24  2  1  0  0  0  0
 25  3  1  0  0  0  0
 26  7  1  0  0  0  0
 28  9  1  0  0  0  0
 32 19  1  0  0  0  0
 33 22  1  0  0  0  0
M  END
