313579430.xyz
 OpenBabel07262113483D
O=C(N1CCCCC1)Cn1cnnc1S
 29 30  0  0  0  0  0  0  0  0999 V2000
    2.2518   -2.4719    2.3756 O   0  0  0  0  0  0  0  0  0  0  0  0
    2.8943   -1.6016    1.8171 C   0  0  0  0  0  0  0  0  0  0  0  0
    3.9901   -1.8387    1.0395 N   0  0  0  0  0  0  0  0  0  0  0  0
    4.7461   -0.7845    0.3562 C   0  0  0  0  0  0  0  0  0  0  0  0
    6.0934   -1.3217   -0.1396 C   0  0  0  0  0  0  0  0  0  0  0  0
    6.7523   -2.1852    0.9384 C   0  0  0  0  0  0  0  0  0  0  0  0
    5.8771   -3.4162    1.2774 C   0  0  0  0  0  0  0  0  0  0  0  0
    4.4251   -3.2170    0.8211 C   0  0  0  0  0  0  0  0  0  0  0  0
    2.4995   -0.1205    1.9892 C   0  0  0  0  0  0  0  0  0  0  0  0
    1.1573   -0.0000    2.4942 N   0  0  0  0  0  0  0  0  0  0  0  0
    0.7267   -0.0380    3.8009 C   0  0  0  0  0  0  0  0  0  0  0  0
   -0.5764   -0.0153    3.8529 N   0  0  0  0  0  0  0  0  0  0  0  0
   -1.0434    0.0065    2.5634 N   0  0  0  0  0  0  0  0  0  0  0  0
    0.0000    0.0000    1.7565 C   0  0  0  0  0  0  0  0  0  0  0  0
    0.0000    0.0000    0.0000 S   0  0  0  0  0  0  0  0  0  0  0  0
    4.9420    0.0409    1.0607 H   0  0  0  0  0  0  0  0  0  0  0  0
    4.1665   -0.3632   -0.4865 H   0  0  0  0  0  0  0  0  0  0  0  0
    6.7319   -0.4672   -0.4122 H   0  0  0  0  0  0  0  0  0  0  0  0
    5.9536   -1.9090   -1.0620 H   0  0  0  0  0  0  0  0  0  0  0  0
    6.8935   -1.5662    1.8410 H   0  0  0  0  0  0  0  0  0  0  0  0
    7.7585   -2.4967    0.6192 H   0  0  0  0  0  0  0  0  0  0  0  0
    6.2723   -4.3224    0.7904 H   0  0  0  0  0  0  0  0  0  0  0  0
    5.9006   -3.6058    2.3616 H   0  0  0  0  0  0  0  0  0  0  0  0
    3.7318   -3.8641    1.3700 H   0  0  0  0  0  0  0  0  0  0  0  0
    4.3210   -3.4566   -0.2513 H   0  0  0  0  0  0  0  0  0  0  0  0
    3.1960    0.3596    2.6954 H   0  0  0  0  0  0  0  0  0  0  0  0
    2.5669    0.4342    1.0429 H   0  0  0  0  0  0  0  0  0  0  0  0
    1.4089   -0.0789    4.6484 H   0  0  0  0  0  0  0  0  0  0  0  0
   -2.3099    0.1580   -0.1863 Au  0  0  0  0  0  0  0  0  0  0  0  0
  2  9  1  0  0  0  0
  2  1  2  0  0  0  0
  3  2  1  0  0  0  0
  4  3  1  0  0  0  0
  4 16  1  0  0  0  0
  5  4  1  0  0  0  0
  5  6  1  0  0  0  0
  6  7  1  0  0  0  0
  6 20  1  0  0  0  0
  7 23  1  0  0  0  0
  8  3  1  0  0  0  0
  8  7  1  0  0  0  0
  8 24  1  0  0  0  0
  9 10  1  0  0  0  0
  9 26  1  0  0  0  0
 10 11  1  0  0  0  0
 11 12  2  0  0  0  0
 11 28  1  0  0  0  0
 13 12  1  0  0  0  0
 14 10  1  0  0  0  0
 14 13  2  0  0  0  0
 15 14  1  0  0  0  0
 17  4  1  0  0  0  0
 18  5  1  0  0  0  0
 19  5  1  0  0  0  0
 21  6  1  0  0  0  0
 22  7  1  0  0  0  0
 25  8  1  0  0  0  0
 27  9  1  0  0  0  0
 29 15  1  0  0  0  0
M  END
