313514934.xyz
 OpenBabel07262113483D
Sc1ccc2c(c1)ccn2C
 20 21  0  0  0  0  0  0  0  0999 V2000
    0.0000    0.0000    0.0000 S   0  0  0  0  0  0  0  0  0  0  0  0
   -0.0000    0.0000    1.7770 C   0  0  0  0  0  0  0  0  0  0  0  0
   -1.2310    0.0823    2.4818 C   0  0  0  0  0  0  0  0  0  0  0  0
   -1.2659    0.1612    3.8672 C   0  0  0  0  0  0  0  0  0  0  0  0
   -0.0411    0.1624    4.5529 C   0  0  0  0  0  0  0  0  0  0  0  0
    1.2107    0.0850    3.8689 C   0  0  0  0  0  0  0  0  0  0  0  0
    1.2175    0.0000    2.4689 C   0  0  0  0  0  0  0  0  0  0  0  0
    2.2343    0.1117    4.8802 C   0  0  0  0  0  0  0  0  0  0  0  0
    1.5922    0.2000    6.0907 C   0  0  0  0  0  0  0  0  0  0  0  0
    0.2185    0.2313    5.9026 N   0  0  0  0  0  0  0  0  0  0  0  0
   -0.7847    0.3220    6.9378 C   0  0  0  0  0  0  0  0  0  0  0  0
   -0.2497   -2.2258   -0.5549 Au  0  0  0  0  0  0  0  0  0  0  0  0
   -2.1590    0.0821    1.9081 H   0  0  0  0  0  0  0  0  0  0  0  0
   -2.2177    0.2228    4.3985 H   0  0  0  0  0  0  0  0  0  0  0  0
    2.1540   -0.0677    1.9125 H   0  0  0  0  0  0  0  0  0  0  0  0
    3.3098    0.0699    4.7251 H   0  0  0  0  0  0  0  0  0  0  0  0
    2.0030    0.2447    7.0979 H   0  0  0  0  0  0  0  0  0  0  0  0
   -0.2923    0.3613    7.9182 H   0  0  0  0  0  0  0  0  0  0  0  0
   -1.4550   -0.5532    6.9189 H   0  0  0  0  0  0  0  0  0  0  0  0
   -1.3974    1.2309    6.8186 H   0  0  0  0  0  0  0  0  0  0  0  0
  1  2  1  0  0  0  0
  2  7  2  0  0  0  0
  2  3  1  0  0  0  0
  3  4  2  0  0  0  0
  4 14  1  0  0  0  0
  4  5  1  0  0  0  0
  5 10  1  0  0  0  0
  6  5  2  0  0  0  0
  6  8  1  0  0  0  0
  7  6  1  0  0  0  0
  8  9  2  0  0  0  0
  9 17  1  0  0  0  0
 10  9  1  0  0  0  0
 10 11  1  0  0  0  0
 11 18  1  0  0  0  0
 12  1  1  0  0  0  0
 13  3  1  0  0  0  0
 15  7  1  0  0  0  0
 16  8  1  0  0  0  0
 19 11  1  0  0  0  0
 20 11  1  0  0  0  0
M  END
