313503264.xyz
 OpenBabel07262113483D
CCOC(=O)c1c(S)ccc(c1C(F)(F)F)OC
 29 29  0  0  0  0  0  0  0  0999 V2000
   -5.3905    1.0349    1.5405 C   0  0  0  0  0  0  0  0  0  0  0  0
   -4.1549    1.1684    0.6697 C   0  0  0  0  0  0  0  0  0  0  0  0
   -2.9489    1.0870    1.4554 O   0  0  0  0  0  0  0  0  0  0  0  0
   -2.4936   -0.1397    1.7386 C   0  0  0  0  0  0  0  0  0  0  0  0
   -3.0073   -1.1703    1.3949 O   0  0  0  0  0  0  0  0  0  0  0  0
   -1.2027   -0.0659    2.5209 C   0  0  0  0  0  0  0  0  0  0  0  0
    0.0000    0.0000    1.7785 C   0  0  0  0  0  0  0  0  0  0  0  0
    0.0000    0.0000    0.0000 S   0  0  0  0  0  0  0  0  0  0  0  0
    1.2213    0.0000    2.4629 C   0  0  0  0  0  0  0  0  0  0  0  0
    1.2710   -0.0692    3.8516 C   0  0  0  0  0  0  0  0  0  0  0  0
    0.0811   -0.1174    4.5899 C   0  0  0  0  0  0  0  0  0  0  0  0
   -1.1680   -0.1044    3.9178 C   0  0  0  0  0  0  0  0  0  0  0  0
   -2.4187   -0.1194    4.7751 C   0  0  0  0  0  0  0  0  0  0  0  0
   -2.4508    0.9321    5.6107 F   0  0  0  0  0  0  0  0  0  0  0  0
   -2.4995   -1.2315    5.5202 F   0  0  0  0  0  0  0  0  0  0  0  0
   -3.5453   -0.0586    4.0405 F   0  0  0  0  0  0  0  0  0  0  0  0
    0.0362   -0.1743    5.9319 O   0  0  0  0  0  0  0  0  0  0  0  0
    1.2357   -0.1887    6.6780 C   0  0  0  0  0  0  0  0  0  0  0  0
   -6.2955    1.1831    0.9302 H   0  0  0  0  0  0  0  0  0  0  0  0
   -5.3849    1.7861    2.3448 H   0  0  0  0  0  0  0  0  0  0  0  0
   -5.4384    0.0355    1.9949 H   0  0  0  0  0  0  0  0  0  0  0  0
   -4.1229    0.3872   -0.1035 H   0  0  0  0  0  0  0  0  0  0  0  0
   -4.1014    2.1543    0.1866 H   0  0  0  0  0  0  0  0  0  0  0  0
   -0.4650    2.2073   -0.4994 Au  0  0  0  0  0  0  0  0  0  0  0  0
    2.1457    0.0548    1.8853 H   0  0  0  0  0  0  0  0  0  0  0  0
    2.2365   -0.0774    4.3548 H   0  0  0  0  0  0  0  0  0  0  0  0
    0.9395   -0.2384    7.7331 H   0  0  0  0  0  0  0  0  0  0  0  0
    1.8275    0.7275    6.5099 H   0  0  0  0  0  0  0  0  0  0  0  0
    1.8536   -1.0696    6.4328 H   0  0  0  0  0  0  0  0  0  0  0  0
  1 21  1  0  0  0  0
  1 20  1  0  0  0  0
  2  3  1  0  0  0  0
  2  1  1  0  0  0  0
  3  4  1  0  0  0  0
  4  6  1  0  0  0  0
  5  4  2  0  0  0  0
  6 12  2  0  0  0  0
  7  9  2  0  0  0  0
  7  6  1  0  0  0  0
  8  7  1  0  0  0  0
  9 10  1  0  0  0  0
 10 26  1  0  0  0  0
 10 11  2  0  0  0  0
 11 17  1  0  0  0  0
 12 11  1  0  0  0  0
 12 13  1  0  0  0  0
 13 15  1  0  0  0  0
 13 14  1  0  0  0  0
 16 13  1  0  0  0  0
 17 18  1  0  0  0  0
 18 27  1  0  0  0  0
 19  1  1  0  0  0  0
 22  2  1  0  0  0  0
 23  2  1  0  0  0  0
 24  8  1  0  0  0  0
 25  9  1  0  0  0  0
 28 18  1  0  0  0  0
 29 18  1  0  0  0  0
M  END
