313696679.xyz
 OpenBabel07262113483D
O=C1NC(=NC1c1ccc(c(c1)Cl)F)S
 21 22  0  0  1  0  0  0  0  0999 V2000
    1.8863    0.0143    4.6333 O   0  0  0  0  0  0  0  0  0  0  0  0
    1.0398    0.0108    3.7760 C   0  0  0  0  0  0  0  0  0  0  0  0
    1.2390   -0.0000    2.4024 N   0  0  0  0  0  0  0  0  0  0  0  0
   -0.0000   -0.0000    1.7546 C   0  0  0  0  0  0  0  0  0  0  0  0
   -1.0153   -0.0026    2.5417 N   0  0  0  0  0  0  0  0  0  0  0  0
   -0.5036    0.0039    3.9066 C   0  0  2  0  0  0  0  0  0  0  0  0
   -1.0156    1.1559    4.7528 C   0  0  0  0  0  0  0  0  0  0  0  0
   -0.5821    1.2985    6.0791 C   0  0  0  0  0  0  0  0  0  0  0  0
   -1.0445    2.3574    6.8591 C   0  0  0  0  0  0  0  0  0  0  0  0
   -1.9428    3.2750    6.3198 C   0  0  0  0  0  0  0  0  0  0  0  0
   -2.3799    3.1422    4.9984 C   0  0  0  0  0  0  0  0  0  0  0  0
   -1.9140    2.0827    4.2171 C   0  0  0  0  0  0  0  0  0  0  0  0
   -3.5009    4.3016    4.3444 Cl  0  0  0  0  0  0  0  0  0  0  0  0
   -2.3858    4.2854    7.0708 F   0  0  0  0  0  0  0  0  0  0  0  0
    0.0000    0.0000    0.0000 S   0  0  0  0  0  0  0  0  0  0  0  0
    2.1500    0.0216    1.9579 H   0  0  0  0  0  0  0  0  0  0  0  0
   -0.7771   -0.9465    4.4034 H   0  0  0  0  0  0  0  0  0  0  0  0
    0.1373    0.5907    6.4928 H   0  0  0  0  0  0  0  0  0  0  0  0
   -0.7185    2.4915    7.8922 H   0  0  0  0  0  0  0  0  0  0  0  0
   -2.2536    1.9782    3.1877 H   0  0  0  0  0  0  0  0  0  0  0  0
   -2.3011    0.0447   -0.2766 Au  0  0  0  0  0  0  0  0  0  0  0  0
  2  6  1  0  0  0  0
  2  1  2  0  0  0  0
  3  2  1  0  0  0  0
  4  3  1  0  0  0  0
  4  5  2  0  0  0  0
  5  6  1  0  0  0  0
  6 17  1  1  0  0  0
  6  7  1  0  0  0  0
  7  8  1  0  0  0  0
  8 18  1  0  0  0  0
  8  9  2  0  0  0  0
  9 19  1  0  0  0  0
 10  9  1  0  0  0  0
 10 14  1  0  0  0  0
 11 10  2  0  0  0  0
 12  7  2  0  0  0  0
 12 11  1  0  0  0  0
 13 11  1  0  0  0  0
 15  4  1  0  0  0  0
 16  3  1  0  0  0  0
 20 12  1  0  0  0  0
 21 15  1  0  0  0  0
M  END
