313658509.xyz
 OpenBabel07262113483D
FC(Cn1c(S)nc2c1cccc2F)F
 22 23  0  0  0  0  0  0  0  0999 V2000
   -2.3537   -2.1254    0.9135 F   0  0  0  0  0  0  0  0  0  0  0  0
   -3.0981   -1.4122    1.7931 C   0  0  0  0  0  0  0  0  0  0  0  0
   -2.5355   -0.0039    1.9234 C   0  0  0  0  0  0  0  0  0  0  0  0
   -1.1997    0.0103    2.4633 N   0  0  0  0  0  0  0  0  0  0  0  0
   -0.0000    0.0000    1.7586 C   0  0  0  0  0  0  0  0  0  0  0  0
    0.0000    0.0000    0.0000 S   0  0  0  0  0  0  0  0  0  0  0  0
    1.0507    0.0000    2.5464 N   0  0  0  0  0  0  0  0  0  0  0  0
    0.5493   -0.0025    3.8329 C   0  0  0  0  0  0  0  0  0  0  0  0
   -0.8683   -0.0088    3.8144 C   0  0  0  0  0  0  0  0  0  0  0  0
   -1.6505   -0.0183    4.9728 C   0  0  0  0  0  0  0  0  0  0  0  0
   -0.9652   -0.0142    6.1895 C   0  0  0  0  0  0  0  0  0  0  0  0
    0.4417   -0.0037    6.2453 C   0  0  0  0  0  0  0  0  0  0  0  0
    1.1953    0.0035    5.0771 C   0  0  0  0  0  0  0  0  0  0  0  0
    2.5297    0.0148    5.1385 F   0  0  0  0  0  0  0  0  0  0  0  0
   -4.3660   -1.3281    1.3139 F   0  0  0  0  0  0  0  0  0  0  0  0
   -3.1159   -1.9581    2.7531 H   0  0  0  0  0  0  0  0  0  0  0  0
   -3.2001    0.5856    2.5726 H   0  0  0  0  0  0  0  0  0  0  0  0
   -2.5323    0.4586    0.9246 H   0  0  0  0  0  0  0  0  0  0  0  0
    2.2204    0.5881   -0.2765 Au  0  0  0  0  0  0  0  0  0  0  0  0
   -2.7412   -0.0284    4.9396 H   0  0  0  0  0  0  0  0  0  0  0  0
   -1.5304   -0.0202    7.1238 H   0  0  0  0  0  0  0  0  0  0  0  0
    0.9654   -0.0022    7.2027 H   0  0  0  0  0  0  0  0  0  0  0  0
  1  2  1  0  0  0  0
  2  3  1  0  0  0  0
  2 16  1  0  0  0  0
  3  4  1  0  0  0  0
  3 17  1  0  0  0  0
  4  9  1  0  0  0  0
  5  4  1  0  0  0  0
  5  7  2  0  0  0  0
  6  5  1  0  0  0  0
  7  8  2  0  0  0  0
  8 13  1  0  0  0  0
  9  8  1  0  0  0  0
  9 10  2  0  0  0  0
 10 11  1  0  0  0  0
 11 12  1  0  0  0  0
 11 21  1  0  0  0  0
 12 22  1  0  0  0  0
 13 14  1  0  0  0  0
 13 12  2  0  0  0  0
 15  2  1  0  0  0  0
 18  3  1  0  0  0  0
 19  6  1  0  0  0  0
 20 10  1  0  0  0  0
M  RAD  1  11   2
M  END
