313672867.xyz
 OpenBabel07262113483D
COc1cc(ccc1Br)n1nnnc1S
 22 23  0  0  0  0  0  0  0  0999 V2000
   -4.2423    2.3864   -0.6121 C   0  0  0  0  0  0  0  0  0  0  0  0
   -5.0100    1.4922    0.1697 O   0  0  0  0  0  0  0  0  0  0  0  0
   -4.3984    0.7526    1.1108 C   0  0  0  0  0  0  0  0  0  0  0  0
   -3.0270    0.8256    1.3887 C   0  0  0  0  0  0  0  0  0  0  0  0
   -2.4649   -0.0045    2.3665 C   0  0  0  0  0  0  0  0  0  0  0  0
   -3.2492   -0.8955    3.0999 C   0  0  0  0  0  0  0  0  0  0  0  0
   -4.6197   -0.9560    2.8368 C   0  0  0  0  0  0  0  0  0  0  0  0
   -5.1906   -0.1537    1.8511 C   0  0  0  0  0  0  0  0  0  0  0  0
   -7.0460   -0.2775    1.4849 Br  0  0  0  0  0  0  0  0  0  0  0  0
   -1.0683    0.0529    2.6076 N   0  0  0  0  0  0  0  0  0  0  0  0
   -0.5782    0.0563    3.8719 N   0  0  0  0  0  0  0  0  0  0  0  0
    0.7020    0.0474    3.7730 N   0  0  0  0  0  0  0  0  0  0  0  0
    1.1003    0.0000    2.4850 N   0  0  0  0  0  0  0  0  0  0  0  0
    0.0000   -0.0000    1.7497 C   0  0  0  0  0  0  0  0  0  0  0  0
    0.0000    0.0000    0.0000 S   0  0  0  0  0  0  0  0  0  0  0  0
   -3.4498    1.8574   -1.1696 H   0  0  0  0  0  0  0  0  0  0  0  0
   -4.9384    2.8496   -1.3221 H   0  0  0  0  0  0  0  0  0  0  0  0
   -3.7811    3.1738    0.0087 H   0  0  0  0  0  0  0  0  0  0  0  0
   -2.3841    1.5147    0.8474 H   0  0  0  0  0  0  0  0  0  0  0  0
   -2.7907   -1.5220    3.8641 H   0  0  0  0  0  0  0  0  0  0  0  0
   -5.2552   -1.6432    3.3966 H   0  0  0  0  0  0  0  0  0  0  0  0
   -1.7056   -1.5021   -0.4685 Au  0  0  0  0  0  0  0  0  0  0  0  0
  1 18  1  0  0  0  0
  1  2  1  0  0  0  0
  2  3  1  0  0  0  0
  3  4  2  0  0  0  0
  3  8  1  0  0  0  0
  4  5  1  0  0  0  0
  5 10  1  0  0  0  0
  5  6  2  0  0  0  0
  6 20  1  0  0  0  0
  7  6  1  0  0  0  0
  7 21  1  0  0  0  0
  8  7  2  0  0  0  0
  9  8  1  0  0  0  0
 10 11  1  0  0  0  0
 12 11  2  0  0  0  0
 13 12  1  0  0  0  0
 14 13  2  0  0  0  0
 14 10  1  0  0  0  0
 15 14  1  0  0  0  0
 16  1  1  0  0  0  0
 17  1  1  0  0  0  0
 19  4  1  0  0  0  0
 22 15  1  0  0  0  0
M  END
