313797625.xyz
 OpenBabel07262113483D
SCCc1cccc2c1CCC2
 26 27  0  0  0  0  0  0  0  0999 V2000
    0.0000    0.0000    0.0000 S   0  0  0  0  0  0  0  0  0  0  0  0
   -0.0000   -0.0000    1.8434 C   0  0  0  0  0  0  0  0  0  0  0  0
    1.4609    0.0000    2.3201 C   0  0  0  0  0  0  0  0  0  0  0  0
    1.5428    0.0321    3.8277 C   0  0  0  0  0  0  0  0  0  0  0  0
    1.7204   -1.1509    4.5642 C   0  0  0  0  0  0  0  0  0  0  0  0
    1.7561   -1.1388    5.9615 C   0  0  0  0  0  0  0  0  0  0  0  0
    1.6127    0.0631    6.6640 C   0  0  0  0  0  0  0  0  0  0  0  0
    1.4404    1.2455    5.9449 C   0  0  0  0  0  0  0  0  0  0  0  0
    1.4046    1.2309    4.5411 C   0  0  0  0  0  0  0  0  0  0  0  0
    1.1914    2.6327    4.0101 C   0  0  0  0  0  0  0  0  0  0  0  0
    1.5484    3.5256    5.2204 C   0  0  0  0  0  0  0  0  0  0  0  0
    1.2485    2.6545    6.4609 C   0  0  0  0  0  0  0  0  0  0  0  0
   -2.2253    0.0106   -0.5337 Au  0  0  0  0  0  0  0  0  0  0  0  0
   -0.5228    0.8911    2.2168 H   0  0  0  0  0  0  0  0  0  0  0  0
   -0.5187   -0.8910    2.2233 H   0  0  0  0  0  0  0  0  0  0  0  0
    1.9782    0.8722    1.8883 H   0  0  0  0  0  0  0  0  0  0  0  0
    1.9663   -0.8984    1.9322 H   0  0  0  0  0  0  0  0  0  0  0  0
    1.8407   -2.0967    4.0286 H   0  0  0  0  0  0  0  0  0  0  0  0
    1.9036   -2.0747    6.5062 H   0  0  0  0  0  0  0  0  0  0  0  0
    1.6431    0.0734    7.7567 H   0  0  0  0  0  0  0  0  0  0  0  0
    1.7948    2.8593    3.1170 H   0  0  0  0  0  0  0  0  0  0  0  0
    0.1348    2.7724    3.7143 H   0  0  0  0  0  0  0  0  0  0  0  0
    2.6265    3.7539    5.1923 H   0  0  0  0  0  0  0  0  0  0  0  0
    1.0092    4.4843    5.2233 H   0  0  0  0  0  0  0  0  0  0  0  0
    1.8908    2.8925    7.3232 H   0  0  0  0  0  0  0  0  0  0  0  0
    0.2034    2.7919    6.7963 H   0  0  0  0  0  0  0  0  0  0  0  0
  1  2  1  0  0  0  0
  2 14  1  0  0  0  0
  2 15  1  0  0  0  0
  2  3  1  0  0  0  0
  3  4  1  0  0  0  0
  4  9  2  0  0  0  0
  4  5  1  0  0  0  0
  5  6  2  0  0  0  0
  6 19  1  0  0  0  0
  6  7  1  0  0  0  0
  7 20  1  0  0  0  0
  8 12  1  0  0  0  0
  8  7  2  0  0  0  0
  9  8  1  0  0  0  0
 10  9  1  0  0  0  0
 10 11  1  0  0  0  0
 11 24  1  0  0  0  0
 11 12  1  0  0  0  0
 12 26  1  0  0  0  0
 12 25  1  0  0  0  0
 13  1  1  0  0  0  0
 16  3  1  0  0  0  0
 17  3  1  0  0  0  0
 18  5  1  0  0  0  0
 21 10  1  0  0  0  0
 22 10  1  0  0  0  0
 23 11  1  0  0  0  0
M  END
