313771012.xyz
 OpenBabel07262113483D
C[C@@H]1CC[C@H](CC1)n1cnnc1S
 28 29  0  0  1  0  0  0  0  0999 V2000
   -5.9939    0.4575    0.1061 C   0  0  0  0  0  0  0  0  0  0  0  0
   -4.6241   -0.2080   -0.0477 C   0  0  2  0  0  0  0  0  0  0  0  0
   -4.3942   -1.2724    1.0580 C   0  0  0  0  0  0  0  0  0  0  0  0
   -2.9359   -1.3483    1.5122 C   0  0  0  0  0  0  0  0  0  0  0  0
   -2.5443   -0.0196    2.1740 C   0  0  2  0  0  0  0  0  0  0  0  0
   -2.9806    1.2086    1.3251 C   0  0  0  0  0  0  0  0  0  0  0  0
   -3.4729    0.8208   -0.0723 C   0  0  0  0  0  0  0  0  0  0  0  0
   -1.1261    0.0089    2.5443 N   0  0  0  0  0  0  0  0  0  0  0  0
   -0.6329    0.0113    3.8310 C   0  0  0  0  0  0  0  0  0  0  0  0
    0.6724    0.0070    3.8301 N   0  0  0  0  0  0  0  0  0  0  0  0
    1.0790    0.0000    2.5263 N   0  0  0  0  0  0  0  0  0  0  0  0
   -0.0000    0.0000    1.7581 C   0  0  0  0  0  0  0  0  0  0  0  0
    0.0000    0.0000    0.0000 S   0  0  0  0  0  0  0  0  0  0  0  0
   -6.8004   -0.2928    0.1459 H   0  0  0  0  0  0  0  0  0  0  0  0
   -6.0469    1.0466    1.0376 H   0  0  0  0  0  0  0  0  0  0  0  0
   -6.2072    1.1380   -0.7334 H   0  0  0  0  0  0  0  0  0  0  0  0
   -4.6119   -0.7242   -1.0227 H   0  0  0  0  0  0  0  0  0  0  0  0
   -4.7397   -2.2591    0.7132 H   0  0  0  0  0  0  0  0  0  0  0  0
   -5.0168   -1.0255    1.9377 H   0  0  0  0  0  0  0  0  0  0  0  0
   -2.2728   -1.5500    0.6558 H   0  0  0  0  0  0  0  0  0  0  0  0
   -2.7832   -2.1688    2.2305 H   0  0  0  0  0  0  0  0  0  0  0  0
   -3.0709    0.0297    3.1387 H   0  0  0  0  0  0  0  0  0  0  0  0
   -3.7795    1.7411    1.8653 H   0  0  0  0  0  0  0  0  0  0  0  0
   -2.1408    1.9143    1.2454 H   0  0  0  0  0  0  0  0  0  0  0  0
   -3.7887    1.7259   -0.6160 H   0  0  0  0  0  0  0  0  0  0  0  0
   -2.6257    0.4099   -0.6407 H   0  0  0  0  0  0  0  0  0  0  0  0
   -1.2794    0.0181    4.7076 H   0  0  0  0  0  0  0  0  0  0  0  0
    2.3201   -0.0288   -0.1779 Au  0  0  0  0  0  0  0  0  0  0  0  0
  1 14  1  0  0  0  0
  1 15  1  0  0  0  0
  2 17  1  6  0  0  0
  2  1  1  0  0  0  0
  2  3  1  0  0  0  0
  3  4  1  0  0  0  0
  3 19  1  0  0  0  0
  4  5  1  0  0  0  0
  4 21  1  0  0  0  0
  5  8  1  0  0  0  0
  5 22  1  1  0  0  0
  6 23  1  0  0  0  0
  6  5  1  0  0  0  0
  7  2  1  0  0  0  0
  7  6  1  0  0  0  0
  8  9  1  0  0  0  0
  9 27  1  0  0  0  0
 10  9  2  0  0  0  0
 11 10  1  0  0  0  0
 12 11  2  0  0  0  0
 12  8  1  0  0  0  0
 13 12  1  0  0  0  0
 16  1  1  0  0  0  0
 18  3  1  0  0  0  0
 20  4  1  0  0  0  0
 24  6  1  0  0  0  0
 25  7  1  0  0  0  0
 26  7  1  0  0  0  0
 28 13  1  0  0  0  0
M  END
