313875364.xyz
 OpenBabel07262113483D
SCCc1ccc(cc1O)C
 23 23  0  0  0  0  0  0  0  0999 V2000
    0.0000    0.0000    0.0000 S   0  0  0  0  0  0  0  0  0  0  0  0
   -0.0000   -0.0000    1.8314 C   0  0  0  0  0  0  0  0  0  0  0  0
    1.3858    0.0000    2.4859 C   0  0  0  0  0  0  0  0  0  0  0  0
    1.3032    0.1004    3.9879 C   0  0  0  0  0  0  0  0  0  0  0  0
    1.5058   -1.0009    4.8227 C   0  0  0  0  0  0  0  0  0  0  0  0
    1.4034   -0.9043    6.2144 C   0  0  0  0  0  0  0  0  0  0  0  0
    1.0881    0.3179    6.8180 C   0  0  0  0  0  0  0  0  0  0  0  0
    0.8776    1.4314    5.9900 C   0  0  0  0  0  0  0  0  0  0  0  0
    0.9794    1.3282    4.6011 C   0  0  0  0  0  0  0  0  0  0  0  0
    0.7708    2.3949    3.7782 O   0  0  0  0  0  0  0  0  0  0  0  0
    0.9774    0.4552    8.3154 C   0  0  0  0  0  0  0  0  0  0  0  0
    1.0180   -1.9863   -0.5293 Au  0  0  0  0  0  0  0  0  0  0  0  0
   -0.6168   -0.8268    2.2120 H   0  0  0  0  0  0  0  0  0  0  0  0
   -0.5215    0.9412    2.0737 H   0  0  0  0  0  0  0  0  0  0  0  0
    1.9121   -0.9268    2.2054 H   0  0  0  0  0  0  0  0  0  0  0  0
    1.9652    0.8411    2.0751 H   0  0  0  0  0  0  0  0  0  0  0  0
    1.7570   -1.9626    4.3666 H   0  0  0  0  0  0  0  0  0  0  0  0
    1.5725   -1.7873    6.8351 H   0  0  0  0  0  0  0  0  0  0  0  0
    0.6274    2.4003    6.4362 H   0  0  0  0  0  0  0  0  0  0  0  0
    0.5729    3.1774    4.3087 H   0  0  0  0  0  0  0  0  0  0  0  0
    1.7274    1.1620    8.7084 H   0  0  0  0  0  0  0  0  0  0  0  0
   -0.0130    0.8395    8.6105 H   0  0  0  0  0  0  0  0  0  0  0  0
    1.1288   -0.5101    8.8195 H   0  0  0  0  0  0  0  0  0  0  0  0
  1  2  1  0  0  0  0
  2 14  1  0  0  0  0
  2 13  1  0  0  0  0
  2  3  1  0  0  0  0
  3  4  1  0  0  0  0
  4  9  2  0  0  0  0
  4  5  1  0  0  0  0
  5  6  2  0  0  0  0
  6  7  1  0  0  0  0
  6 18  1  0  0  0  0
  7 11  1  0  0  0  0
  8 19  1  0  0  0  0
  8  7  2  0  0  0  0
  9  8  1  0  0  0  0
 10 20  1  0  0  0  0
 10  9  1  0  0  0  0
 11 22  1  0  0  0  0
 11 21  1  0  0  0  0
 11 23  1  0  0  0  0
 12  1  1  0  0  0  0
 15  3  1  0  0  0  0
 16  3  1  0  0  0  0
 17  5  1  0  0  0  0
M  END
