313816709.xyz
 OpenBabel07262113483D
SC1=NC(=O)/C(=C/c2cc3CCCN4c3c(c2)CCC4)/C(=O)N1c1ccc(cc1)C(C)C
 59 63  0  0  0  0  0  0  0  0999 V2000
    0.0000    0.0000    0.0000 S   0  0  0  0  0  0  0  0  0  0  0  0
    0.0000   -0.0000    1.7835 C   0  0  0  0  0  0  0  0  0  0  0  0
   -1.1855   -0.0287    2.2714 N   0  0  0  0  0  0  0  0  0  0  0  0
   -1.4118   -0.0662    3.6462 C   0  0  0  0  0  0  0  0  0  0  0  0
   -2.5244   -0.2870    4.0878 O   0  0  0  0  0  0  0  0  0  0  0  0
   -0.2394    0.2416    4.5354 C   0  0  0  0  0  0  0  0  0  0  0  0
   -0.5671    0.4754    5.8564 C   0  0  0  0  0  0  0  0  0  0  0  0
    0.0956    0.8095    7.0854 C   0  0  0  0  0  0  0  0  0  0  0  0
    1.4851    0.9810    7.3016 C   0  0  0  0  0  0  0  0  0  0  0  0
    2.0026    1.3100    8.5430 C   0  0  0  0  0  0  0  0  0  0  0  0
    3.4932    1.5070    8.7116 C   0  0  0  0  0  0  0  0  0  0  0  0
    3.9250    1.2431   10.1501 C   0  0  0  0  0  0  0  0  0  0  0  0
    3.0537    2.0522   11.1006 C   0  0  0  0  0  0  0  0  0  0  0  0
    1.6413    1.7548   10.9128 N   0  0  0  0  0  0  0  0  0  0  0  0
    1.1333    1.4741    9.6638 C   0  0  0  0  0  0  0  0  0  0  0  0
   -0.2724    1.3171    9.4706 C   0  0  0  0  0  0  0  0  0  0  0  0
   -0.7470    0.9884    8.2141 C   0  0  0  0  0  0  0  0  0  0  0  0
   -1.2240    1.5238   10.6279 C   0  0  0  0  0  0  0  0  0  0  0  0
   -0.5309    1.2561   11.9598 C   0  0  0  0  0  0  0  0  0  0  0  0
    0.7615    2.0576   12.0320 C   0  0  0  0  0  0  0  0  0  0  0  0
    1.1045    0.2183    3.9602 C   0  0  0  0  0  0  0  0  0  0  0  0
    2.1621    0.3316    4.5590 O   0  0  0  0  0  0  0  0  0  0  0  0
    1.1635   -0.0000    2.5495 N   0  0  0  0  0  0  0  0  0  0  0  0
    2.4561   -0.2554    1.9915 C   0  0  0  0  0  0  0  0  0  0  0  0
    2.7640   -1.5326    1.5206 C   0  0  0  0  0  0  0  0  0  0  0  0
    3.9777   -1.7639    0.8727 C   0  0  0  0  0  0  0  0  0  0  0  0
    4.9122   -0.7334    0.6930 C   0  0  0  0  0  0  0  0  0  0  0  0
    4.6072    0.5342    1.2190 C   0  0  0  0  0  0  0  0  0  0  0  0
    3.3937    0.7765    1.8707 C   0  0  0  0  0  0  0  0  0  0  0  0
    6.2076   -0.9663   -0.0641 C   0  0  0  0  0  0  0  0  0  0  0  0
    7.0526   -2.0838    0.5640 C   0  0  0  0  0  0  0  0  0  0  0  0
    5.9328   -1.2400   -1.5514 C   0  0  0  0  0  0  0  0  0  0  0  0
    1.9937    0.9335   -0.7241 Au  0  0  0  0  0  0  0  0  0  0  0  0
   -1.6525    0.3815    5.9814 H   0  0  0  0  0  0  0  0  0  0  0  0
    2.1599    0.8408    6.4604 H   0  0  0  0  0  0  0  0  0  0  0  0
    4.0347    0.8563    8.0086 H   0  0  0  0  0  0  0  0  0  0  0  0
    3.7604    2.5447    8.4385 H   0  0  0  0  0  0  0  0  0  0  0  0
    3.8163    0.1713   10.3870 H   0  0  0  0  0  0  0  0  0  0  0  0
    4.9821    1.5091   10.3042 H   0  0  0  0  0  0  0  0  0  0  0  0
    3.3083    1.8232   12.1475 H   0  0  0  0  0  0  0  0  0  0  0  0
    3.2452    3.1363   10.9584 H   0  0  0  0  0  0  0  0  0  0  0  0
   -1.8256    0.8627    8.0839 H   0  0  0  0  0  0  0  0  0  0  0  0
   -2.1075    0.8786   10.5062 H   0  0  0  0  0  0  0  0  0  0  0  0
   -1.5981    2.5643   10.6182 H   0  0  0  0  0  0  0  0  0  0  0  0
   -0.2947    0.1829   12.0537 H   0  0  0  0  0  0  0  0  0  0  0  0
   -1.1792    1.5268   12.8073 H   0  0  0  0  0  0  0  0  0  0  0  0
    0.5313    3.1430   12.0636 H   0  0  0  0  0  0  0  0  0  0  0  0
    1.3071    1.8255   12.9603 H   0  0  0  0  0  0  0  0  0  0  0  0
    2.0292   -2.3320    1.6274 H   0  0  0  0  0  0  0  0  0  0  0  0
    4.1891   -2.7638    0.4877 H   0  0  0  0  0  0  0  0  0  0  0  0
    5.3335    1.3451    1.1192 H   0  0  0  0  0  0  0  0  0  0  0  0
    3.1630    1.7614    2.2776 H   0  0  0  0  0  0  0  0  0  0  0  0
    6.7899   -0.0313    0.0010 H   0  0  0  0  0  0  0  0  0  0  0  0
    7.2613   -1.8780    1.6250 H   0  0  0  0  0  0  0  0  0  0  0  0
    6.5385   -3.0566    0.5053 H   0  0  0  0  0  0  0  0  0  0  0  0
    8.0146   -2.1855    0.0370 H   0  0  0  0  0  0  0  0  0  0  0  0
    6.8752   -1.3477   -2.1120 H   0  0  0  0  0  0  0  0  0  0  0  0
    5.3540   -0.4209   -2.0066 H   0  0  0  0  0  0  0  0  0  0  0  0
    5.3546   -2.1688   -1.6828 H   0  0  0  0  0  0  0  0  0  0  0  0
  1  2  1  0  0  0  0
  2  3  2  0  0  0  0
  2 23  1  0  0  0  0
  3  4  2  0  0  0  0
  4  5  2  0  0  0  0
  4  6  1  0  0  0  0
  6  7  2  0  0  0  0
  7 34  1  0  0  0  0
  7  8  1  0  0  0  0
  8  9  2  0  0  0  0
  8 17  1  0  0  0  0
  9 10  1  0  0  0  0
 10 11  1  0  0  0  0
 10 15  2  0  0  0  0
 11 12  1  0  0  0  0
 12 39  1  0  0  0  0
 12 38  1  0  0  0  0
 12 13  1  0  0  0  0
 13 40  1  0  0  0  0
 14 13  1  0  0  0  0
 14 20  1  0  0  0  0
 15 14  1  0  0  0  0
 16 15  1  0  0  0  0
 16 18  1  0  0  0  0
 17 16  2  0  0  0  0
 18 19  1  0  0  0  0
 19 20  1  0  0  0  0
 19 45  1  0  0  0  0
 19 46  1  0  0  0  0
 20 47  1  0  0  0  0
 20 48  1  0  0  0  0
 21  6  1  0  0  0  0
 21 22  2  0  0  0  0
 23 21  1  0  0  0  0
 24 23  1  0  0  0  0
 25 49  1  0  0  0  0
 25 24  2  0  0  0  0
 26 25  1  0  0  0  0
 27 26  2  0  0  0  0
 27 28  1  0  0  0  0
 28 29  2  0  0  0  0
 29 24  1  0  0  0  0
 29 52  1  0  0  0  0
 30 53  1  0  0  0  0
 30 31  1  0  0  0  0
 30 27  1  0  0  0  0
 31 54  1  0  0  0  0
 32 30  1  0  0  0  0
 33  1  1  0  0  0  0
 35  9  1  0  0  0  0
 36 11  1  0  0  0  0
 37 11  1  0  0  0  0
 41 13  1  0  0  0  0
 42 17  1  0  0  0  0
 43 18  1  0  0  0  0
 44 18  1  0  0  0  0
 50 26  1  0  0  0  0
 51 28  1  0  0  0  0
 55 31  1  0  0  0  0
 56 31  1  0  0  0  0
 57 32  1  0  0  0  0
 58 32  1  0  0  0  0
 59 32  1  0  0  0  0
M  END
