313881813.xyz
 OpenBabel07262113483D
SCCCC(=C)C
 19 18  0  0  0  0  0  0  0  0999 V2000
    0.0000    0.0000    0.0000 S   0  0  0  0  0  0  0  0  0  0  0  0
    0.0000   -0.0000    1.8404 C   0  0  0  0  0  0  0  0  0  0  0  0
    1.3651   -0.0000    2.5273 C   0  0  0  0  0  0  0  0  0  0  0  0
    2.0953   -1.3487    2.5052 C   0  0  0  0  0  0  0  0  0  0  0  0
    3.4168   -1.3395    3.2372 C   0  0  0  0  0  0  0  0  0  0  0  0
    3.6070   -2.0585    4.3518 C   0  0  0  0  0  0  0  0  0  0  0  0
    4.5052   -0.4842    2.6420 C   0  0  0  0  0  0  0  0  0  0  0  0
    0.5285   -2.1453   -0.6067 Au  0  0  0  0  0  0  0  0  0  0  0  0
   -0.5249    0.9457    2.0593 H   0  0  0  0  0  0  0  0  0  0  0  0
   -0.6430   -0.8111    2.2141 H   0  0  0  0  0  0  0  0  0  0  0  0
    1.2120    0.2933    3.5815 H   0  0  0  0  0  0  0  0  0  0  0  0
    1.9891    0.7836    2.0683 H   0  0  0  0  0  0  0  0  0  0  0  0
    2.2735   -1.6392    1.4536 H   0  0  0  0  0  0  0  0  0  0  0  0
    1.4373   -2.1204    2.9387 H   0  0  0  0  0  0  0  0  0  0  0  0
    4.5651   -2.0538    4.8796 H   0  0  0  0  0  0  0  0  0  0  0  0
    2.8104   -2.6790    4.7728 H   0  0  0  0  0  0  0  0  0  0  0  0
    5.4492   -0.5799    3.1975 H   0  0  0  0  0  0  0  0  0  0  0  0
    4.2216    0.5819    2.6353 H   0  0  0  0  0  0  0  0  0  0  0  0
    4.6898   -0.7629    1.5898 H   0  0  0  0  0  0  0  0  0  0  0  0
  1  2  1  0  0  0  0
  2  9  1  0  0  0  0
  2 10  1  0  0  0  0
  2  3  1  0  0  0  0
  3 11  1  0  0  0  0
  4  3  1  0  0  0  0
  4 14  1  0  0  0  0
  4  5  1  0  0  0  0
  5  6  2  0  0  0  0
  6 16  1  0  0  0  0
  6 15  1  0  0  0  0
  7 17  1  0  0  0  0
  7  5  1  0  0  0  0
  8  1  1  0  0  0  0
 12  3  1  0  0  0  0
 13  4  1  0  0  0  0
 18  7  1  0  0  0  0
 19  7  1  0  0  0  0
M  END
