313875014.xyz
 OpenBabel07262113483D
Sc1sc2c(c1)CCC2
 17 18  0  0  0  0  0  0  0  0999 V2000
    0.0000    0.0000    0.0000 S   0  0  0  0  0  0  0  0  0  0  0  0
    0.0000   -0.0000    1.7382 C   0  0  0  0  0  0  0  0  0  0  0  0
    1.5105   -0.0000    2.6556 S   0  0  0  0  0  0  0  0  0  0  0  0
    0.6431   -0.0763    4.1410 C   0  0  0  0  0  0  0  0  0  0  0  0
   -0.7239   -0.1128    3.9519 C   0  0  0  0  0  0  0  0  0  0  0  0
   -1.0989   -0.0656    2.5862 C   0  0  0  0  0  0  0  0  0  0  0  0
   -1.4340   -0.2408    5.2767 C   0  0  0  0  0  0  0  0  0  0  0  0
   -0.3136    0.1109    6.2962 C   0  0  0  0  0  0  0  0  0  0  0  0
    1.0401   -0.1777    5.5849 C   0  0  0  0  0  0  0  0  0  0  0  0
    0.2127    2.2326   -0.5859 Au  0  0  0  0  0  0  0  0  0  0  0  0
   -2.1196   -0.0689    2.2030 H   0  0  0  0  0  0  0  0  0  0  0  0
   -2.3090    0.4213    5.3721 H   0  0  0  0  0  0  0  0  0  0  0  0
   -1.8001   -1.2738    5.4197 H   0  0  0  0  0  0  0  0  0  0  0  0
   -0.4141   -0.4351    7.2455 H   0  0  0  0  0  0  0  0  0  0  0  0
   -0.3674    1.1861    6.5287 H   0  0  0  0  0  0  0  0  0  0  0  0
    1.8331    0.5276    5.8793 H   0  0  0  0  0  0  0  0  0  0  0  0
    1.4145   -1.1925    5.8144 H   0  0  0  0  0  0  0  0  0  0  0  0
  1  2  1  0  0  0  0
  2  6  2  0  0  0  0
  2  3  1  0  0  0  0
  3  4  1  0  0  0  0
  4  9  1  0  0  0  0
  5  4  2  0  0  0  0
  5  7  1  0  0  0  0
  6  5  1  0  0  0  0
  7 12  1  0  0  0  0
  7 13  1  0  0  0  0
  7  8  1  0  0  0  0
  8 15  1  0  0  0  0
  8 14  1  0  0  0  0
  9 17  1  0  0  0  0
  9 16  1  0  0  0  0
  9  8  1  0  0  0  0
 10  1  1  0  0  0  0
 11  6  1  0  0  0  0
M  END
