313934490.xyz
 OpenBabel07262113483D
SCCCC1CCCN1C(=O)OC(C)(C)C
 39 39  0  0  1  0  0  0  0  0999 V2000
    0.0000    0.0000    0.0000 S   0  0  0  0  0  0  0  0  0  0  0  0
    0.0000    0.0000    1.8434 C   0  0  0  0  0  0  0  0  0  0  0  0
    1.3823    0.0000    2.5000 C   0  0  0  0  0  0  0  0  0  0  0  0
    1.2982    0.2517    4.0142 C   0  0  0  0  0  0  0  0  0  0  0  0
    1.4288    1.7313    4.4429 C   0  0  2  0  0  0  0  0  0  0  0  0
    0.7051    2.0215    5.7669 C   0  0  0  0  0  0  0  0  0  0  0  0
   -0.7321    2.3181    5.3113 C   0  0  0  0  0  0  0  0  0  0  0  0
   -0.5460    3.1130    4.0089 C   0  0  0  0  0  0  0  0  0  0  0  0
    0.7783    2.6926    3.5345 N   0  0  0  0  0  0  0  0  0  0  0  0
    1.5105    3.3917    2.6281 C   0  0  0  0  0  0  0  0  0  0  0  0
    2.6880    3.1974    2.3797 O   0  0  0  0  0  0  0  0  0  0  0  0
    0.7420    4.3398    2.0271 O   0  0  0  0  0  0  0  0  0  0  0  0
    1.3059    5.2796    1.0728 C   0  0  0  0  0  0  0  0  0  0  0  0
    2.3916    6.1276    1.7411 C   0  0  0  0  0  0  0  0  0  0  0  0
    1.8684    4.5388   -0.1474 C   0  0  0  0  0  0  0  0  0  0  0  0
    0.1068    6.1364    0.6744 C   0  0  0  0  0  0  0  0  0  0  0  0
    0.7765    2.1312   -0.3411 Au  0  0  0  0  0  0  0  0  0  0  0  0
   -0.5482   -0.9174    2.1188 H   0  0  0  0  0  0  0  0  0  0  0  0
   -0.6022    0.8463    2.2013 H   0  0  0  0  0  0  0  0  0  0  0  0
    1.8681   -0.9670    2.2960 H   0  0  0  0  0  0  0  0  0  0  0  0
    2.0207    0.7644    2.0319 H   0  0  0  0  0  0  0  0  0  0  0  0
    2.0951   -0.2992    4.5397 H   0  0  0  0  0  0  0  0  0  0  0  0
    0.3488   -0.1638    4.3960 H   0  0  0  0  0  0  0  0  0  0  0  0
    2.4954    1.9909    4.4762 H   0  0  0  0  0  0  0  0  0  0  0  0
    1.1437    2.9114    6.2471 H   0  0  0  0  0  0  0  0  0  0  0  0
    0.7719    1.1852    6.4781 H   0  0  0  0  0  0  0  0  0  0  0  0
   -1.3191    2.8745    6.0560 H   0  0  0  0  0  0  0  0  0  0  0  0
   -1.2672    1.3774    5.1084 H   0  0  0  0  0  0  0  0  0  0  0  0
   -1.3272    2.9008    3.2621 H   0  0  0  0  0  0  0  0  0  0  0  0
   -0.5523    4.2004    4.1853 H   0  0  0  0  0  0  0  0  0  0  0  0
    1.9832    6.6109    2.6415 H   0  0  0  0  0  0  0  0  0  0  0  0
    2.7294    6.9163    1.0518 H   0  0  0  0  0  0  0  0  0  0  0  0
    3.2508    5.5093    2.0282 H   0  0  0  0  0  0  0  0  0  0  0  0
    1.0158    4.0505   -0.7098 H   0  0  0  0  0  0  0  0  0  0  0  0
    2.6647    3.8427    0.1423 H   0  0  0  0  0  0  0  0  0  0  0  0
    2.2722    5.2442   -0.8890 H   0  0  0  0  0  0  0  0  0  0  0  0
   -0.6870    5.5083    0.2432 H   0  0  0  0  0  0  0  0  0  0  0  0
    0.4052    6.8907   -0.0689 H   0  0  0  0  0  0  0  0  0  0  0  0
   -0.3020    6.6535    1.5545 H   0  0  0  0  0  0  0  0  0  0  0  0
  1  2  1  0  0  0  0
  2 18  1  0  0  0  0
  2 19  1  0  0  0  0
  2  3  1  0  0  0  0
  3  4  1  0  0  0  0
  4 23  1  0  0  0  0
  4  5  1  0  0  0  0
  4 22  1  0  0  0  0
  5 24  1  1  0  0  0
  5  6  1  0  0  0  0
  6 25  1  0  0  0  0
  6 26  1  0  0  0  0
  7  6  1  0  0  0  0
  7 27  1  0  0  0  0
  8 30  1  0  0  0  0
  8  7  1  0  0  0  0
  9  8  1  0  0  0  0
  9  5  1  0  0  0  0
 10  9  1  0  0  0  0
 11 10  2  0  0  0  0
 12 10  1  0  0  0  0
 13 14  1  0  0  0  0
 13 12  1  0  0  0  0
 14 33  1  0  0  0  0
 14 31  1  0  0  0  0
 15 35  1  0  0  0  0
 15 13  1  0  0  0  0
 16 13  1  0  0  0  0
 16 39  1  0  0  0  0
 17  1  1  0  0  0  0
 20  3  1  0  0  0  0
 21  3  1  0  0  0  0
 28  7  1  0  0  0  0
 29  8  1  0  0  0  0
 32 14  1  0  0  0  0
 34 15  1  0  0  0  0
 36 15  1  0  0  0  0
 37 16  1  0  0  0  0
 38 16  1  0  0  0  0
M  END
