313987336.xyz
 OpenBabel07262113483D
SCCCc1ccc(c(c1)C(F)(F)F)C
 28 28  0  0  0  0  0  0  0  0999 V2000
    0.0000    0.0000    0.0000 S   0  0  0  0  0  0  0  0  0  0  0  0
    0.0000   -0.0000    1.8311 C   0  0  0  0  0  0  0  0  0  0  0  0
    1.3769   -0.0000    2.4850 C   0  0  0  0  0  0  0  0  0  0  0  0
    1.3156    0.1160    4.0195 C   0  0  0  0  0  0  0  0  0  0  0  0
    0.7040    1.4120    4.4965 C   0  0  0  0  0  0  0  0  0  0  0  0
   -0.6072    1.4767    4.9776 C   0  0  0  0  0  0  0  0  0  0  0  0
   -1.1696    2.6939    5.3694 C   0  0  0  0  0  0  0  0  0  0  0  0
   -0.4543    3.8945    5.2990 C   0  0  0  0  0  0  0  0  0  0  0  0
    0.8710    3.8266    4.8136 C   0  0  0  0  0  0  0  0  0  0  0  0
    1.4298    2.6087    4.4224 C   0  0  0  0  0  0  0  0  0  0  0  0
    1.7104    5.0781    4.7133 C   0  0  0  0  0  0  0  0  0  0  0  0
    1.8714    5.6745    5.9130 F   0  0  0  0  0  0  0  0  0  0  0  0
    1.1508    5.9960    3.8983 F   0  0  0  0  0  0  0  0  0  0  0  0
    2.9409    4.8315    4.2341 F   0  0  0  0  0  0  0  0  0  0  0  0
   -1.0960    5.1887    5.7323 C   0  0  0  0  0  0  0  0  0  0  0  0
    1.0363   -1.9751   -0.5362 Au  0  0  0  0  0  0  0  0  0  0  0  0
   -0.5370    0.9352    2.0686 H   0  0  0  0  0  0  0  0  0  0  0  0
   -0.6206   -0.8277    2.2078 H   0  0  0  0  0  0  0  0  0  0  0  0
    1.9734    0.8281    2.0684 H   0  0  0  0  0  0  0  0  0  0  0  0
    1.9027   -0.9310    2.2113 H   0  0  0  0  0  0  0  0  0  0  0  0
    0.7429   -0.7329    4.4284 H   0  0  0  0  0  0  0  0  0  0  0  0
    2.3398    0.0243    4.4170 H   0  0  0  0  0  0  0  0  0  0  0  0
   -1.2011    0.5616    5.0492 H   0  0  0  0  0  0  0  0  0  0  0  0
   -2.1964    2.7147    5.7429 H   0  0  0  0  0  0  0  0  0  0  0  0
    2.4561    2.5924    4.0525 H   0  0  0  0  0  0  0  0  0  0  0  0
   -2.1255    5.0163    6.0751 H   0  0  0  0  0  0  0  0  0  0  0  0
   -0.5316    5.6589    6.5513 H   0  0  0  0  0  0  0  0  0  0  0  0
   -1.1218    5.9165    4.9078 H   0  0  0  0  0  0  0  0  0  0  0  0
  1  2  1  0  0  0  0
  2 17  1  0  0  0  0
  2 18  1  0  0  0  0
  2  3  1  0  0  0  0
  3  4  1  0  0  0  0
  4 22  1  0  0  0  0
  4 21  1  0  0  0  0
  4  5  1  0  0  0  0
  5  6  1  0  0  0  0
  6 23  1  0  0  0  0
  6  7  2  0  0  0  0
  7 24  1  0  0  0  0
  8  7  1  0  0  0  0
  8 15  1  0  0  0  0
  9  8  2  0  0  0  0
 10  5  2  0  0  0  0
 10  9  1  0  0  0  0
 11  9  1  0  0  0  0
 11 12  1  0  0  0  0
 13 11  1  0  0  0  0
 14 11  1  0  0  0  0
 15 26  1  0  0  0  0
 15 27  1  0  0  0  0
 16  1  1  0  0  0  0
 19  3  1  0  0  0  0
 20  3  1  0  0  0  0
 25 10  1  0  0  0  0
 28 15  1  0  0  0  0
M  END
