314048304.xyz
 OpenBabel07262113483D
SCc1c[nH]nc1C(F)(F)F
 16 16  0  0  0  0  0  0  0  0999 V2000
    0.0000    0.0000    0.0000 S   0  0  0  0  0  0  0  0  0  0  0  0
    0.0000    0.0000    1.8543 C   0  0  0  0  0  0  0  0  0  0  0  0
    1.3543   -0.0000    2.4833 C   0  0  0  0  0  0  0  0  0  0  0  0
    2.1914   -1.0953    2.6465 C   0  0  0  0  0  0  0  0  0  0  0  0
    3.3379   -0.6306    3.2085 N   0  0  0  0  0  0  0  0  0  0  0  0
    3.3237    0.6813    3.4301 N   0  0  0  0  0  0  0  0  0  0  0  0
    2.1303    1.0820    2.9964 C   0  0  0  0  0  0  0  0  0  0  0  0
    1.8120    2.5466    3.0553 C   0  0  0  0  0  0  0  0  0  0  0  0
    0.4885    2.7694    2.9347 F   0  0  0  0  0  0  0  0  0  0  0  0
    2.4107    3.2324    2.0508 F   0  0  0  0  0  0  0  0  0  0  0  0
    2.2174    3.1069    4.1977 F   0  0  0  0  0  0  0  0  0  0  0  0
    1.1170    1.9479   -0.4688 Au  0  0  0  0  0  0  0  0  0  0  0  0
   -0.5304   -0.9360    2.0924 H   0  0  0  0  0  0  0  0  0  0  0  0
   -0.6099    0.8314    2.2222 H   0  0  0  0  0  0  0  0  0  0  0  0
    2.0483   -2.1433    2.3939 H   0  0  0  0  0  0  0  0  0  0  0  0
    4.1561   -1.1671    3.4731 H   0  0  0  0  0  0  0  0  0  0  0  0
  1  2  1  0  0  0  0
  2 13  1  0  0  0  0
  2 14  1  0  0  0  0
  2  3  1  0  0  0  0
  3  4  2  0  0  0  0
  3  7  1  0  0  0  0
  4  5  1  0  0  0  0
  5  6  1  0  0  0  0
  5 16  1  0  0  0  0
  7  8  1  0  0  0  0
  7  6  2  0  0  0  0
  8 11  1  0  0  0  0
  9  8  1  0  0  0  0
 10  8  1  0  0  0  0
 12  1  1  0  0  0  0
 15  4  1  0  0  0  0
M  END
