314036488.xyz
 OpenBabel07262113483D
SCc1ccc(cc1F)C(F)(F)F
 19 19  0  0  0  0  0  0  0  0999 V2000
    0.0000    0.0000    0.0000 S   0  0  0  0  0  0  0  0  0  0  0  0
    0.0000    0.0000    1.8504 C   0  0  0  0  0  0  0  0  0  0  0  0
    1.3696    0.0000    2.4598 C   0  0  0  0  0  0  0  0  0  0  0  0
    2.1524   -1.1608    2.5341 C   0  0  0  0  0  0  0  0  0  0  0  0
    3.4404   -1.1370    3.0644 C   0  0  0  0  0  0  0  0  0  0  0  0
    3.9753    0.0686    3.5329 C   0  0  0  0  0  0  0  0  0  0  0  0
    3.2232    1.2439    3.4663 C   0  0  0  0  0  0  0  0  0  0  0  0
    1.9416    1.1861    2.9333 C   0  0  0  0  0  0  0  0  0  0  0  0
    1.2304    2.3256    2.8561 F   0  0  0  0  0  0  0  0  0  0  0  0
    5.3453    0.0935    4.1600 C   0  0  0  0  0  0  0  0  0  0  0  0
    5.9277    1.2993    4.0417 F   0  0  0  0  0  0  0  0  0  0  0  0
    5.2900   -0.1888    5.4758 F   0  0  0  0  0  0  0  0  0  0  0  0
    6.1651   -0.8118    3.5996 F   0  0  0  0  0  0  0  0  0  0  0  0
    1.0491    1.9779   -0.4979 Au  0  0  0  0  0  0  0  0  0  0  0  0
   -0.5276   -0.9364    2.0926 H   0  0  0  0  0  0  0  0  0  0  0  0
   -0.6024    0.8375    2.2213 H   0  0  0  0  0  0  0  0  0  0  0  0
    1.7392   -2.0967    2.1509 H   0  0  0  0  0  0  0  0  0  0  0  0
    4.0362   -2.0495    3.1078 H   0  0  0  0  0  0  0  0  0  0  0  0
    3.6193    2.1982    3.8137 H   0  0  0  0  0  0  0  0  0  0  0  0
  1  2  1  0  0  0  0
  2 15  1  0  0  0  0
  2 16  1  0  0  0  0
  2  3  1  0  0  0  0
  3  4  2  0  0  0  0
  3  8  1  0  0  0  0
  4  5  1  0  0  0  0
  5 18  1  0  0  0  0
  5  6  2  0  0  0  0
  6 10  1  0  0  0  0
  7  6  1  0  0  0  0
  7 19  1  0  0  0  0
  8  7  2  0  0  0  0
  9  8  1  0  0  0  0
 10 12  1  0  0  0  0
 11 10  1  0  0  0  0
 13 10  1  0  0  0  0
 14  1  1  0  0  0  0
 17  4  1  0  0  0  0
M  END
