314003048.xyz
 OpenBabel07262113483D
SCCCc1cn(nc1C(F)(F)F)C
 25 25  0  0  0  0  0  0  0  0999 V2000
    0.0000    0.0000    0.0000 S   0  0  0  0  0  0  0  0  0  0  0  0
   -0.0000    0.0000    1.8357 C   0  0  0  0  0  0  0  0  0  0  0  0
    1.3834   -0.0000    2.4769 C   0  0  0  0  0  0  0  0  0  0  0  0
    1.3423    0.1111    4.0116 C   0  0  0  0  0  0  0  0  0  0  0  0
    0.6727    1.3607    4.5107 C   0  0  0  0  0  0  0  0  0  0  0  0
   -0.5121    1.4505    5.2273 C   0  0  0  0  0  0  0  0  0  0  0  0
   -0.7682    2.7741    5.4335 N   0  0  0  0  0  0  0  0  0  0  0  0
    0.1695    3.5578    4.9061 N   0  0  0  0  0  0  0  0  0  0  0  0
    1.0459    2.7256    4.3455 C   0  0  0  0  0  0  0  0  0  0  0  0
    2.2113    3.2923    3.5962 C   0  0  0  0  0  0  0  0  0  0  0  0
    3.2594    2.4438    3.6131 F   0  0  0  0  0  0  0  0  0  0  0  0
    1.9154    3.5053    2.2885 F   0  0  0  0  0  0  0  0  0  0  0  0
    2.6207    4.4603    4.0954 F   0  0  0  0  0  0  0  0  0  0  0  0
   -1.8564    3.3610    6.1889 C   0  0  0  0  0  0  0  0  0  0  0  0
    0.9852    2.0269   -0.4459 Au  0  0  0  0  0  0  0  0  0  0  0  0
   -0.5490   -0.9239    2.0925 H   0  0  0  0  0  0  0  0  0  0  0  0
   -0.6045    0.8424    2.2010 H   0  0  0  0  0  0  0  0  0  0  0  0
    1.9246   -0.9141    2.1852 H   0  0  0  0  0  0  0  0  0  0  0  0
    1.9642    0.8407    2.0674 H   0  0  0  0  0  0  0  0  0  0  0  0
    0.8161   -0.7609    4.4341 H   0  0  0  0  0  0  0  0  0  0  0  0
    2.3749    0.0692    4.3923 H   0  0  0  0  0  0  0  0  0  0  0  0
   -1.1767    0.6725    5.5970 H   0  0  0  0  0  0  0  0  0  0  0  0
   -2.6598    2.6209    6.2987 H   0  0  0  0  0  0  0  0  0  0  0  0
   -2.2371    4.2373    5.6479 H   0  0  0  0  0  0  0  0  0  0  0  0
   -1.5143    3.6779    7.1866 H   0  0  0  0  0  0  0  0  0  0  0  0
  1  2  1  0  0  0  0
  2 16  1  0  0  0  0
  2 17  1  0  0  0  0
  2  3  1  0  0  0  0
  3  4  1  0  0  0  0
  4 21  1  0  0  0  0
  4 20  1  0  0  0  0
  4  5  1  0  0  0  0
  5  6  2  0  0  0  0
  6  7  1  0  0  0  0
  6 22  1  0  0  0  0
  7 14  1  0  0  0  0
  8  7  1  0  0  0  0
  9  5  1  0  0  0  0
  9  8  2  0  0  0  0
 10 11  1  0  0  0  0
 10 13  1  0  0  0  0
 10  9  1  0  0  0  0
 12 10  1  0  0  0  0
 14 23  1  0  0  0  0
 14 25  1  0  0  0  0
 15  1  1  0  0  0  0
 18  3  1  0  0  0  0
 19  3  1  0  0  0  0
 24 14  1  0  0  0  0
M  END
