31404177.xyz
 OpenBabel07262113483D
Sc1nn(c(=S)s1)c1ccccc1C
 22 23  0  0  0  0  0  0  0  0999 V2000
    0.0000    0.0000    0.0000 S   0  0  0  0  0  0  0  0  0  0  0  0
   -0.0000   -0.0000    1.7502 C   0  0  0  0  0  0  0  0  0  0  0  0
   -1.0375    0.0004    2.5231 N   0  0  0  0  0  0  0  0  0  0  0  0
   -0.6740    0.0007    3.8437 N   0  0  0  0  0  0  0  0  0  0  0  0
    0.6590   -0.0180    4.1633 C   0  0  0  0  0  0  0  0  0  0  0  0
    1.3523   -0.0579    5.6550 S   0  0  0  0  0  0  0  0  0  0  0  0
    1.5403    0.0000    2.6138 S   0  0  0  0  0  0  0  0  0  0  0  0
   -1.7235   -0.0178    4.8214 C   0  0  0  0  0  0  0  0  0  0  0  0
   -2.4262   -1.2072    5.0179 C   0  0  0  0  0  0  0  0  0  0  0  0
   -3.4629   -1.2523    5.9494 C   0  0  0  0  0  0  0  0  0  0  0  0
   -3.7824   -0.1021    6.6756 C   0  0  0  0  0  0  0  0  0  0  0  0
   -3.0742    1.0825    6.4642 C   0  0  0  0  0  0  0  0  0  0  0  0
   -2.0309    1.1555    5.5303 C   0  0  0  0  0  0  0  0  0  0  0  0
   -1.2653    2.4281    5.2999 C   0  0  0  0  0  0  0  0  0  0  0  0
   -2.2852    0.0313   -0.3711 Au  0  0  0  0  0  0  0  0  0  0  0  0
   -2.1484   -2.0889    4.4378 H   0  0  0  0  0  0  0  0  0  0  0  0
   -4.0142   -2.1811    6.1103 H   0  0  0  0  0  0  0  0  0  0  0  0
   -4.5908   -0.1259    7.4102 H   0  0  0  0  0  0  0  0  0  0  0  0
   -3.3356    1.9790    7.0320 H   0  0  0  0  0  0  0  0  0  0  0  0
   -1.1418    2.6319    4.2250 H   0  0  0  0  0  0  0  0  0  0  0  0
   -0.2544    2.3476    5.7329 H   0  0  0  0  0  0  0  0  0  0  0  0
   -1.7753    3.2853    5.7608 H   0  0  0  0  0  0  0  0  0  0  0  0
  1  2  1  0  0  0  0
  2  3  2  0  0  0  0
  2  7  1  0  0  0  0
  3  4  1  0  0  0  0
  4  5  1  0  0  0  0
  4  8  1  0  0  0  0
  5  6  2  0  0  0  0
  7  5  1  0  0  0  0
  8  9  2  0  0  0  0
  8 13  1  0  0  0  0
  9 10  1  0  0  0  0
 10 17  1  0  0  0  0
 10 11  2  0  0  0  0
 11 18  1  0  0  0  0
 12 11  1  0  0  0  0
 12 19  1  0  0  0  0
 13 12  2  0  0  0  0
 14 13  1  0  0  0  0
 14 21  1  0  0  0  0
 14 22  1  0  0  0  0
 15  1  1  0  0  0  0
 16  9  1  0  0  0  0
 20 14  1  0  0  0  0
M  END
