314058296.xyz
 OpenBabel07262113483D
CC(NC(=O)Cn1c(S)nc2c(c1=O)ccs2)C
 31 32  0  0  1  0  0  0  0  0999 V2000
    2.2512   -3.1409   -1.7787 C   0  0  0  0  0  0  0  0  0  0  0  0
    3.4453   -2.9068   -0.8485 C   0  0  0  0  0  0  0  0  0  0  0  0
    3.3010   -1.6462   -0.1233 N   0  0  0  0  0  0  0  0  0  0  0  0
    2.5717   -1.5572    1.0203 C   0  0  0  0  0  0  0  0  0  0  0  0
    2.0833   -2.5103    1.5966 O   0  0  0  0  0  0  0  0  0  0  0  0
    2.4491   -0.1339    1.5855 C   0  0  0  0  0  0  0  0  0  0  0  0
    1.2390    0.0000    2.3761 N   0  0  0  0  0  0  0  0  0  0  0  0
   -0.0000   -0.0000    1.7768 C   0  0  0  0  0  0  0  0  0  0  0  0
    0.0000    0.0000    0.0000 S   0  0  0  0  0  0  0  0  0  0  0  0
   -1.1261    0.0212    2.4380 N   0  0  0  0  0  0  0  0  0  0  0  0
   -1.0281    0.0185    3.7869 C   0  0  0  0  0  0  0  0  0  0  0  0
    0.1593    0.0038    4.5171 C   0  0  2  0  0  0  0  0  0  0  0  0
    1.4150   -0.0145    3.8019 C   0  0  0  0  0  0  0  0  0  0  0  0
    2.5320   -0.0244    4.2845 O   0  0  0  0  0  0  0  0  0  0  0  0
   -0.0515    0.0016    5.9317 C   0  0  0  0  0  0  0  0  0  0  0  0
   -1.3801    0.0167    6.2516 C   0  0  0  0  0  0  0  0  0  0  0  0
   -2.4167    0.0322    4.8433 S   0  0  0  0  0  0  0  0  0  0  0  0
    4.7827   -2.9289   -1.5839 C   0  0  0  0  0  0  0  0  0  0  0  0
    1.3131   -3.1202   -1.2053 H   0  0  0  0  0  0  0  0  0  0  0  0
    2.2001   -2.3593   -2.5555 H   0  0  0  0  0  0  0  0  0  0  0  0
    2.3317   -4.1176   -2.2818 H   0  0  0  0  0  0  0  0  0  0  0  0
    3.4376   -3.6891   -0.0747 H   0  0  0  0  0  0  0  0  0  0  0  0
    3.5271   -0.7910   -0.6193 H   0  0  0  0  0  0  0  0  0  0  0  0
    2.4792    0.6355    0.7989 H   0  0  0  0  0  0  0  0  0  0  0  0
    3.2846    0.0328    2.2810 H   0  0  0  0  0  0  0  0  0  0  0  0
   -2.2921   -0.0057   -0.3181 Au  0  0  0  0  0  0  0  0  0  0  0  0
    0.7608   -0.0120    6.6576 H   0  0  0  0  0  0  0  0  0  0  0  0
   -1.8291    0.0183    7.2433 H   0  0  0  0  0  0  0  0  0  0  0  0
    5.6207   -2.7841   -0.8854 H   0  0  0  0  0  0  0  0  0  0  0  0
    4.9240   -3.8896   -2.1015 H   0  0  0  0  0  0  0  0  0  0  0  0
    4.8281   -2.1329   -2.3479 H   0  0  0  0  0  0  0  0  0  0  0  0
  1 19  1  0  0  0  0
  1  2  1  0  0  0  0
  2  3  1  0  0  0  0
  2 22  1  0  0  0  0
  3  4  1  0  0  0  0
  4  6  1  0  0  0  0
  4  5  2  0  0  0  0
  6 25  1  0  0  0  0
  6  7  1  0  0  0  0
  7 13  1  0  0  0  0
  8  7  1  0  0  0  0
  8 10  2  0  0  0  0
  9  8  1  0  0  0  0
 10 11  2  0  0  0  0
 11 17  1  0  0  0  0
 12 11  1  6  0  0  0
 12 15  1  0  0  0  0
 13 14  2  0  0  0  0
 13 12  1  0  0  0  0
 15 16  2  0  0  0  0
 15 27  1  0  0  0  0
 16 28  1  0  0  0  0
 17 16  1  0  0  0  0
 18 29  1  0  0  0  0
 18  2  1  0  0  0  0
 20  1  1  0  0  0  0
 21  1  1  0  0  0  0
 23  3  1  0  0  0  0
 24  6  1  0  0  0  0
 26  9  1  0  0  0  0
 30 18  1  0  0  0  0
 31 18  1  0  0  0  0
M  RAD  1  12   2
M  END
