314015403.xyz
 OpenBabel07262113483D
SCc1ccc(cc1Cl)O
 17 17  0  0  0  0  0  0  0  0999 V2000
    0.0000    0.0000    0.0000 S   0  0  0  0  0  0  0  0  0  0  0  0
    0.0000    0.0000    1.8538 C   0  0  0  0  0  0  0  0  0  0  0  0
    1.3642    0.0000    2.4764 C   0  0  0  0  0  0  0  0  0  0  0  0
    2.1054    1.1878    2.5658 C   0  0  0  0  0  0  0  0  0  0  0  0
    3.3900    1.2259    3.1003 C   0  0  0  0  0  0  0  0  0  0  0  0
    3.9853    0.0451    3.5666 C   0  0  0  0  0  0  0  0  0  0  0  0
    3.2774   -1.1595    3.4887 C   0  0  0  0  0  0  0  0  0  0  0  0
    1.9925   -1.1647    2.9493 C   0  0  0  0  0  0  0  0  0  0  0  0
    1.1646   -2.7136    2.8654 Cl  0  0  0  0  0  0  0  0  0  0  0  0
    5.2318    0.0081    4.0978 O   0  0  0  0  0  0  0  0  0  0  0  0
    0.9790   -2.0227   -0.4656 Au  0  0  0  0  0  0  0  0  0  0  0  0
   -0.6094   -0.8345    2.2196 H   0  0  0  0  0  0  0  0  0  0  0  0
   -0.5289    0.9364    2.0927 H   0  0  0  0  0  0  0  0  0  0  0  0
    1.6560    2.1103    2.1898 H   0  0  0  0  0  0  0  0  0  0  0  0
    3.9359    2.1722    3.1545 H   0  0  0  0  0  0  0  0  0  0  0  0
    3.7378   -2.0796    3.8475 H   0  0  0  0  0  0  0  0  0  0  0  0
    5.6130    0.8958    4.0880 H   0  0  0  0  0  0  0  0  0  0  0  0
  1  2  1  0  0  0  0
  2 13  1  0  0  0  0
  2 12  1  0  0  0  0
  2  3  1  0  0  0  0
  3  4  2  0  0  0  0
  3  8  1  0  0  0  0
  4  5  1  0  0  0  0
  5 15  1  0  0  0  0
  5  6  2  0  0  0  0
  6 10  1  0  0  0  0
  7  6  1  0  0  0  0
  7 16  1  0  0  0  0
  8  7  2  0  0  0  0
  9  8  1  0  0  0  0
 11  1  1  0  0  0  0
 14  4  1  0  0  0  0
 17 10  1  0  0  0  0
M  END
