31406096.xyz
 OpenBabel07262113483D
COCCn1c(S)nc2c(c1=O)cccn2
 27 28  0  0  1  0  0  0  0  0999 V2000
   -2.5066    3.5852    0.8467 C   0  0  0  0  0  0  0  0  0  0  0  0
   -2.1430    2.2329    0.9061 O   0  0  0  0  0  0  0  0  0  0  0  0
   -3.0692    1.4179    1.5699 C   0  0  0  0  0  0  0  0  0  0  0  0
   -2.5036    0.0101    1.6643 C   0  0  0  0  0  0  0  0  0  0  0  0
   -1.2348   -0.0249    2.4001 N   0  0  0  0  0  0  0  0  0  0  0  0
    0.0000   -0.0000    1.7751 C   0  0  0  0  0  0  0  0  0  0  0  0
    0.0000    0.0000    0.0000 S   0  0  0  0  0  0  0  0  0  0  0  0
    1.1330   -0.0000    2.4137 N   0  0  0  0  0  0  0  0  0  0  0  0
    1.1399   -0.0192    3.7829 C   0  0  0  0  0  0  0  0  0  0  0  0
   -0.0704   -0.0365    4.5184 C   0  0  2  0  0  0  0  0  0  0  0  0
   -1.3490   -0.0321    3.8091 C   0  0  0  0  0  0  0  0  0  0  0  0
   -2.4471   -0.0357    4.3406 O   0  0  0  0  0  0  0  0  0  0  0  0
   -0.0227   -0.0543    5.9197 C   0  0  0  0  0  0  0  0  0  0  0  0
    1.2188   -0.0566    6.5366 C   0  0  0  0  0  0  0  0  0  0  0  0
    2.3659   -0.0403    5.7170 C   0  0  0  0  0  0  0  0  0  0  0  0
    2.3423   -0.0223    4.3931 N   0  0  0  0  0  0  0  0  0  0  0  0
   -3.4539    3.7358    0.2902 H   0  0  0  0  0  0  0  0  0  0  0  0
   -1.7032    4.1245    0.3252 H   0  0  0  0  0  0  0  0  0  0  0  0
   -2.6323    4.0233    1.8575 H   0  0  0  0  0  0  0  0  0  0  0  0
   -3.2787    1.7973    2.5891 H   0  0  0  0  0  0  0  0  0  0  0  0
   -4.0379    1.3764    1.0281 H   0  0  0  0  0  0  0  0  0  0  0  0
   -3.2152   -0.6254    2.2065 H   0  0  0  0  0  0  0  0  0  0  0  0
   -2.3342   -0.4085    0.6637 H   0  0  0  0  0  0  0  0  0  0  0  0
    2.2921   -0.2625   -0.2568 Au  0  0  0  0  0  0  0  0  0  0  0  0
   -0.9608   -0.0662    6.4785 H   0  0  0  0  0  0  0  0  0  0  0  0
    1.3186   -0.0710    7.6233 H   0  0  0  0  0  0  0  0  0  0  0  0
    3.3593   -0.0426    6.1828 H   0  0  0  0  0  0  0  0  0  0  0  0
  1  2  1  0  0  0  0
  1 19  1  0  0  0  0
  2  3  1  0  0  0  0
  3  4  1  0  0  0  0
  3 20  1  0  0  0  0
  4 22  1  0  0  0  0
  4  5  1  0  0  0  0
  5 11  1  0  0  0  0
  6  5  1  0  0  0  0
  6  8  2  0  0  0  0
  7  6  1  0  0  0  0
  8  9  2  0  0  0  0
  9 16  2  0  0  0  0
 10  9  1  1  0  0  0
 10 13  1  0  0  0  0
 11 12  2  0  0  0  0
 11 10  1  0  0  0  0
 13 25  1  0  0  0  0
 13 14  2  0  0  0  0
 14 26  1  0  0  0  0
 15 27  1  0  0  0  0
 15 14  1  0  0  0  0
 16 15  2  0  0  0  0
 17  1  1  0  0  0  0
 18  1  1  0  0  0  0
 21  3  1  0  0  0  0
 23  4  1  0  0  0  0
 24  7  1  0  0  0  0
M  RAD  1  10   2
M  END
