314168518.xyz
 OpenBabel07262113483D
Cc1cccc(n1)Cn1c(S)nc2c1cccc2
 31 33  0  0  0  0  0  0  0  0999 V2000
    6.4416   -2.6504    0.8475 C   0  0  0  0  0  0  0  0  0  0  0  0
    4.9881   -2.6779    1.2386 C   0  0  0  0  0  0  0  0  0  0  0  0
    4.2903   -3.8831    1.4158 C   0  0  0  0  0  0  0  0  0  0  0  0
    2.9452   -3.8372    1.7795 C   0  0  0  0  0  0  0  0  0  0  0  0
    2.3290   -2.5981    1.9557 C   0  0  0  0  0  0  0  0  0  0  0  0
    3.1028   -1.4495    1.7572 C   0  0  0  0  0  0  0  0  0  0  0  0
    4.3910   -1.4919    1.4118 N   0  0  0  0  0  0  0  0  0  0  0  0
    2.5324   -0.0498    1.9008 C   0  0  0  0  0  0  0  0  0  0  0  0
    1.1992   -0.0000    2.4538 N   0  0  0  0  0  0  0  0  0  0  0  0
   -0.0000    0.0000    1.7607 C   0  0  0  0  0  0  0  0  0  0  0  0
    0.0000    0.0000    0.0000 S   0  0  0  0  0  0  0  0  0  0  0  0
   -1.0517   -0.0197    2.5501 N   0  0  0  0  0  0  0  0  0  0  0  0
   -0.5481   -0.0483    3.8413 C   0  0  0  0  0  0  0  0  0  0  0  0
    0.8707   -0.0511    3.8039 C   0  0  0  0  0  0  0  0  0  0  0  0
    1.6548   -0.1014    4.9573 C   0  0  0  0  0  0  0  0  0  0  0  0
    0.9758   -0.1337    6.1780 C   0  0  0  0  0  0  0  0  0  0  0  0
   -0.4323   -0.1207    6.2351 C   0  0  0  0  0  0  0  0  0  0  0  0
   -1.2089   -0.0788    5.0766 C   0  0  0  0  0  0  0  0  0  0  0  0
    7.0281   -2.1081    1.6061 H   0  0  0  0  0  0  0  0  0  0  0  0
    6.5682   -2.1052   -0.1014 H   0  0  0  0  0  0  0  0  0  0  0  0
    6.8573   -3.6613    0.7334 H   0  0  0  0  0  0  0  0  0  0  0  0
    4.7996   -4.8380    1.2711 H   0  0  0  0  0  0  0  0  0  0  0  0
    2.3788   -4.7602    1.9253 H   0  0  0  0  0  0  0  0  0  0  0  0
    1.2796   -2.5235    2.2411 H   0  0  0  0  0  0  0  0  0  0  0  0
    3.2090    0.5448    2.5333 H   0  0  0  0  0  0  0  0  0  0  0  0
    2.5221    0.4382    0.9134 H   0  0  0  0  0  0  0  0  0  0  0  0
   -2.2893    0.2316   -0.2507 Au  0  0  0  0  0  0  0  0  0  0  0  0
    2.7454   -0.1218    4.9129 H   0  0  0  0  0  0  0  0  0  0  0  0
    1.5491   -0.1732    7.1070 H   0  0  0  0  0  0  0  0  0  0  0  0
   -0.9241   -0.1480    7.2103 H   0  0  0  0  0  0  0  0  0  0  0  0
   -2.2997   -0.0731    5.1166 H   0  0  0  0  0  0  0  0  0  0  0  0
  1  2  1  0  0  0  0
  1 19  1  0  0  0  0
  2  7  2  0  0  0  0
  2  3  1  0  0  0  0
  3  4  2  0  0  0  0
  4 23  1  0  0  0  0
  4  5  1  0  0  0  0
  5 24  1  0  0  0  0
  6  8  1  0  0  0  0
  6  5  1  0  0  0  0
  7  6  2  0  0  0  0
  8  9  1  0  0  0  0
  8 25  1  0  0  0  0
  9 14  1  0  0  0  0
 10  9  1  0  0  0  0
 10 12  2  0  0  0  0
 11 10  1  0  0  0  0
 12 13  2  0  0  0  0
 13 18  1  0  0  0  0
 14 13  1  0  0  0  0
 14 15  2  0  0  0  0
 15 16  1  0  0  0  0
 16 17  1  0  0  0  0
 16 29  1  0  0  0  0
 17 30  1  0  0  0  0
 18 31  1  0  0  0  0
 18 17  2  0  0  0  0
 20  1  1  0  0  0  0
 21  1  1  0  0  0  0
 22  3  1  0  0  0  0
 26  8  1  0  0  0  0
 27 11  1  0  0  0  0
 28 15  1  0  0  0  0
M  RAD  2   5   2  16   2
M  END
