314156807.xyz
 OpenBabel07262113483D
Cc1ccc2c(c1)nc(n2CCn1cncc1)S
 32 35  0  0  0  0  0  0  0  0999 V2000
   -1.5159    0.3069    7.5282 C   0  0  0  0  0  0  0  0  0  0  0  0
   -0.7479    0.2343    6.2307 C   0  0  0  0  0  0  0  0  0  0  0  0
    0.6681    0.2419    6.2560 C   0  0  0  0  0  0  0  0  0  0  0  0
    1.4385    0.1675    5.0954 C   0  0  0  0  0  0  0  0  0  0  0  0
    0.7534    0.0776    3.8781 C   0  0  0  0  0  0  0  0  0  0  0  0
   -0.6626    0.0915    3.8212 C   0  0  0  0  0  0  0  0  0  0  0  0
   -1.4127    0.1642    5.0038 C   0  0  0  0  0  0  0  0  0  0  0  0
   -1.0828    0.0425    2.5077 N   0  0  0  0  0  0  0  0  0  0  0  0
   -0.0000    0.0000    1.7698 C   0  0  0  0  0  0  0  0  0  0  0  0
    1.1736   -0.0000    2.5573 N   0  0  0  0  0  0  0  0  0  0  0  0
    2.5577    0.0424    2.1450 C   0  0  0  0  0  0  0  0  0  0  0  0
    3.3925   -1.1687    2.6186 C   0  0  0  0  0  0  0  0  0  0  0  0
    3.2026   -2.3569    1.7982 N   0  0  0  0  0  0  0  0  0  0  0  0
    2.0753   -3.1105    1.7691 C   0  0  0  0  0  0  0  0  0  0  0  0
    2.0380   -3.8990    0.6876 N   0  0  0  0  0  0  0  0  0  0  0  0
    3.2178   -3.6446    0.0084 C   0  0  0  0  0  0  0  0  0  0  0  0
    3.9421   -2.6886    0.6760 C   0  0  0  0  0  0  0  0  0  0  0  0
    0.0000    0.0000    0.0000 S   0  0  0  0  0  0  0  0  0  0  0  0
   -1.2292    1.1947    8.1159 H   0  0  0  0  0  0  0  0  0  0  0  0
   -1.3191   -0.5751    8.1610 H   0  0  0  0  0  0  0  0  0  0  0  0
   -2.5999    0.3560    7.3509 H   0  0  0  0  0  0  0  0  0  0  0  0
    1.1756    0.3146    7.2219 H   0  0  0  0  0  0  0  0  0  0  0  0
    2.5285    0.1980    5.1542 H   0  0  0  0  0  0  0  0  0  0  0  0
   -2.5032    0.1734    4.9490 H   0  0  0  0  0  0  0  0  0  0  0  0
    3.0273    0.9513    2.5599 H   0  0  0  0  0  0  0  0  0  0  0  0
    2.5798    0.1213    1.0485 H   0  0  0  0  0  0  0  0  0  0  0  0
    4.4597   -0.9085    2.5841 H   0  0  0  0  0  0  0  0  0  0  0  0
    3.1463   -1.4186    3.6596 H   0  0  0  0  0  0  0  0  0  0  0  0
    1.3176   -3.0626    2.5499 H   0  0  0  0  0  0  0  0  0  0  0  0
    3.4594   -4.1560   -0.9206 H   0  0  0  0  0  0  0  0  0  0  0  0
    4.8960   -2.2157    0.4590 H   0  0  0  0  0  0  0  0  0  0  0  0
    0.5690   -2.2516   -0.1676 Au  0  0  0  0  0  0  0  0  0  0  0  0
  1 19  1  0  0  0  0
  1 20  1  0  0  0  0
  2  3  2  0  0  0  0
  2  1  1  0  0  0  0
  3 22  1  0  0  0  0
  4 23  1  0  0  0  0
  4  3  1  0  0  0  0
  5  4  2  0  0  0  0
  6  5  1  0  0  0  0
  6  7  1  0  0  0  0
  7  2  1  0  0  0  0
  8  6  2  0  0  0  0
  9  8  2  0  0  0  0
  9 10  1  0  0  0  0
 10  5  1  0  0  0  0
 11 10  1  0  0  0  0
 11 25  1  0  0  0  0
 11 12  1  0  0  0  0
 12 28  1  0  0  0  0
 13 12  1  0  0  0  0
 14 13  1  0  0  0  0
 14 29  1  0  0  0  0
 15 14  1  0  0  0  0
 16 17  2  0  0  0  0
 16 15  1  0  0  0  0
 17 13  1  0  0  0  0
 18  9  1  0  0  0  0
 21  1  1  0  0  0  0
 24  7  1  0  0  0  0
 26 11  1  0  0  0  0
 27 12  1  0  0  0  0
 30 16  1  0  0  0  0
 31 17  1  0  0  0  0
 32 18  1  0  0  0  0
 32 15  1  0  0  0  0
M  RAD  2   7   2  14   2
M  END
