314272175.xyz
 OpenBabel07262113483D
CC1(CCCC1)n1c(S)ncc1c1ccccc1
 36 38  0  0  1  0  0  0  0  0999 V2000
   -3.5584    0.2342    3.1772 C   0  0  0  0  0  0  0  0  0  0  0  0
   -2.5301    0.0995    2.0509 C   0  0  0  0  0  0  0  0  0  0  0  0
   -2.6924    1.3435    1.1078 C   0  0  0  0  0  0  0  0  0  0  0  0
   -3.4014    0.8342   -0.1676 C   0  0  0  0  0  0  0  0  0  0  0  0
   -3.9459   -0.5626    0.1837 C   0  0  0  0  0  0  0  0  0  0  0  0
   -2.9070   -1.1152    1.1631 C   0  0  0  0  0  0  0  0  0  0  0  0
   -1.1365   -0.0252    2.5671 N   0  0  0  0  0  0  0  0  0  0  0  0
   -0.0000   -0.0000    1.7755 C   0  0  0  0  0  0  0  0  0  0  0  0
    0.0000    0.0000    0.0000 S   0  0  0  0  0  0  0  0  0  0  0  0
    1.1072   -0.0000    2.4938 N   0  0  0  0  0  0  0  0  0  0  0  0
    0.7066   -0.0317    3.8008 C   0  0  0  0  0  0  0  0  0  0  0  0
   -0.6663   -0.0615    3.8953 C   0  0  2  0  0  0  0  0  0  0  0  0
   -1.4352   -0.2317    5.1479 C   0  0  0  0  0  0  0  0  0  0  0  0
   -1.9716   -1.4829    5.4993 C   0  0  0  0  0  0  0  0  0  0  0  0
   -2.6377   -1.6578    6.7123 C   0  0  0  0  0  0  0  0  0  0  0  0
   -2.7654   -0.5869    7.6036 C   0  0  0  0  0  0  0  0  0  0  0  0
   -2.2161    0.6548    7.2764 C   0  0  0  0  0  0  0  0  0  0  0  0
   -1.5546    0.8301    6.0576 C   0  0  0  0  0  0  0  0  0  0  0  0
   -3.6246   -0.6614    3.8032 H   0  0  0  0  0  0  0  0  0  0  0  0
   -4.5424    0.3959    2.7157 H   0  0  0  0  0  0  0  0  0  0  0  0
   -3.3477    1.0964    3.8233 H   0  0  0  0  0  0  0  0  0  0  0  0
   -1.7240    1.7994    0.8696 H   0  0  0  0  0  0  0  0  0  0  0  0
   -3.2840    2.1133    1.6249 H   0  0  0  0  0  0  0  0  0  0  0  0
   -4.1877    1.5193   -0.5184 H   0  0  0  0  0  0  0  0  0  0  0  0
   -2.6644    0.7424   -0.9801 H   0  0  0  0  0  0  0  0  0  0  0  0
   -4.0759   -1.2041   -0.7011 H   0  0  0  0  0  0  0  0  0  0  0  0
   -4.9330   -0.4861    0.6696 H   0  0  0  0  0  0  0  0  0  0  0  0
   -2.0228   -1.4589    0.6057 H   0  0  0  0  0  0  0  0  0  0  0  0
   -3.2646   -1.9624    1.7686 H   0  0  0  0  0  0  0  0  0  0  0  0
    2.3023    0.1411   -0.2271 Au  0  0  0  0  0  0  0  0  0  0  0  0
    1.4165   -0.0655    4.6257 H   0  0  0  0  0  0  0  0  0  0  0  0
   -1.8586   -2.3214    4.8080 H   0  0  0  0  0  0  0  0  0  0  0  0
   -3.0511   -2.6362    6.9693 H   0  0  0  0  0  0  0  0  0  0  0  0
   -3.2850   -0.7242    8.5550 H   0  0  0  0  0  0  0  0  0  0  0  0
   -2.3034    1.4929    7.9721 H   0  0  0  0  0  0  0  0  0  0  0  0
   -1.1277    1.8007    5.7958 H   0  0  0  0  0  0  0  0  0  0  0  0
  1 19  1  0  0  0  0
  1 21  1  0  0  0  0
  2  7  1  0  0  0  0
  2  1  1  0  0  0  0
  3 23  1  0  0  0  0
  3  2  1  0  0  0  0
  4  5  1  0  0  0  0
  4  3  1  0  0  0  0
  5 27  1  0  0  0  0
  5  6  1  0  0  0  0
  6 29  1  0  0  0  0
  6  2  1  0  0  0  0
  7 12  1  0  0  0  0
  8 10  2  0  0  0  0
  8  7  1  0  0  0  0
  9  8  1  0  0  0  0
 10 11  2  0  0  0  0
 11 12  1  0  0  0  0
 11 31  1  0  0  0  0
 12 13  1  6  0  0  0
 13 14  2  0  0  0  0
 13 18  1  0  0  0  0
 14 15  1  0  0  0  0
 15 33  1  0  0  0  0
 15 16  2  0  0  0  0
 16 34  1  0  0  0  0
 17 16  1  0  0  0  0
 17 35  1  0  0  0  0
 18 17  2  0  0  0  0
 20  1  1  0  0  0  0
 22  3  1  0  0  0  0
 24  4  1  0  0  0  0
 25  4  1  0  0  0  0
 26  5  1  0  0  0  0
 28  6  1  0  0  0  0
 30  9  1  0  0  0  0
 32 14  1  0  0  0  0
 36 18  1  0  0  0  0
M  RAD  1  12   2
M  END
