314332269.xyz
 OpenBabel07262113483D
O=C(NC(C)(C)C)CCn1c(S)ncc1C
 35 35  0  0  1  0  0  0  0  0999 V2000
    5.2670   -0.6689    1.9494 O   0  0  0  0  0  0  0  0  0  0  0  0
    4.5088   -1.2875    1.2132 C   0  0  0  0  0  0  0  0  0  0  0  0
    4.9097   -1.9891    0.1223 N   0  0  0  0  0  0  0  0  0  0  0  0
    6.3053   -2.1399   -0.3406 C   0  0  0  0  0  0  0  0  0  0  0  0
    7.1470   -2.8207    0.7506 C   0  0  0  0  0  0  0  0  0  0  0  0
    6.2557   -3.0228   -1.5928 C   0  0  0  0  0  0  0  0  0  0  0  0
    6.8890   -0.7614   -0.6909 C   0  0  0  0  0  0  0  0  0  0  0  0
    3.0078   -1.3278    1.4913 C   0  0  0  0  0  0  0  0  0  0  0  0
    2.5261    0.0343    1.9882 C   0  0  0  0  0  0  0  0  0  0  0  0
    1.1659   -0.0000    2.4952 N   0  0  0  0  0  0  0  0  0  0  0  0
    0.0000   -0.0000    1.7388 C   0  0  0  0  0  0  0  0  0  0  0  0
    0.0000    0.0000    0.0000 S   0  0  0  0  0  0  0  0  0  0  0  0
   -1.0695   -0.0421    2.5219 N   0  0  0  0  0  0  0  0  0  0  0  0
   -0.6011   -0.0861    3.7951 C   0  0  0  0  0  0  0  0  0  0  0  0
    0.7909   -0.0581    3.8157 C   0  0  2  0  0  0  0  0  0  0  0  0
    1.7572   -0.0759    4.9493 C   0  0  0  0  0  0  0  0  0  0  0  0
    4.1896   -2.4423   -0.4265 H   0  0  0  0  0  0  0  0  0  0  0  0
    6.7329   -3.8116    0.9949 H   0  0  0  0  0  0  0  0  0  0  0  0
    8.1828   -2.9549    0.4024 H   0  0  0  0  0  0  0  0  0  0  0  0
    7.1566   -2.2094    1.6624 H   0  0  0  0  0  0  0  0  0  0  0  0
    5.6471   -2.5553   -2.3841 H   0  0  0  0  0  0  0  0  0  0  0  0
    5.8321   -4.0142   -1.3629 H   0  0  0  0  0  0  0  0  0  0  0  0
    7.2694   -3.1731   -1.9914 H   0  0  0  0  0  0  0  0  0  0  0  0
    7.9214   -0.8680   -1.0584 H   0  0  0  0  0  0  0  0  0  0  0  0
    6.8931   -0.1132    0.1950 H   0  0  0  0  0  0  0  0  0  0  0  0
    6.2892   -0.2780   -1.4780 H   0  0  0  0  0  0  0  0  0  0  0  0
    2.8359   -2.0825    2.2779 H   0  0  0  0  0  0  0  0  0  0  0  0
    2.4279   -1.6326    0.6076 H   0  0  0  0  0  0  0  0  0  0  0  0
    2.5735    0.7715    1.1735 H   0  0  0  0  0  0  0  0  0  0  0  0
    3.1962    0.3769    2.7857 H   0  0  0  0  0  0  0  0  0  0  0  0
    0.2612    2.2407   -0.5486 Au  0  0  0  0  0  0  0  0  0  0  0  0
   -1.2668   -0.1355    4.6568 H   0  0  0  0  0  0  0  0  0  0  0  0
    2.4580   -0.9250    4.8851 H   0  0  0  0  0  0  0  0  0  0  0  0
    2.3645    0.8443    4.9888 H   0  0  0  0  0  0  0  0  0  0  0  0
    1.2108   -0.1587    5.8988 H   0  0  0  0  0  0  0  0  0  0  0  0
  2  8  1  0  0  0  0
  2  1  2  0  0  0  0
  3  2  1  0  0  0  0
  4  3  1  0  0  0  0
  4  5  1  0  0  0  0
  5 18  1  0  0  0  0
  5 20  1  0  0  0  0
  6 22  1  0  0  0  0
  6  4  1  0  0  0  0
  7  4  1  0  0  0  0
  7 25  1  0  0  0  0
  8  9  1  0  0  0  0
  8 27  1  0  0  0  0
  9 10  1  0  0  0  0
  9 30  1  0  0  0  0
 10 15  1  0  0  0  0
 11 10  1  0  0  0  0
 11 13  2  0  0  0  0
 12 11  1  0  0  0  0
 13 14  2  0  0  0  0
 14 15  1  0  0  0  0
 14 32  1  0  0  0  0
 15 16  1  1  0  0  0
 16 34  1  0  0  0  0
 16 35  1  0  0  0  0
 17  3  1  0  0  0  0
 19  5  1  0  0  0  0
 21  6  1  0  0  0  0
 23  6  1  0  0  0  0
 24  7  1  0  0  0  0
 26  7  1  0  0  0  0
 28  8  1  0  0  0  0
 29  9  1  0  0  0  0
 31 12  1  0  0  0  0
 33 16  1  0  0  0  0
M  RAD  1  15   2
M  END
