314399753.xyz
 OpenBabel07262113483D
Clc1ccc(c(c1)n1c(S)ncc1C)C
 26 27  0  0  1  0  0  0  0  0999 V2000
    5.4905   -2.5221    1.1803 Cl  0  0  0  0  0  0  0  0  0  0  0  0
    4.5421   -1.0599    1.2897 C   0  0  0  0  0  0  0  0  0  0  0  0
    5.0753    0.1517    0.8458 C   0  0  0  0  0  0  0  0  0  0  0  0
    4.3062    1.3124    0.9393 C   0  0  0  0  0  0  0  0  0  0  0  0
    3.0093    1.3014    1.4705 C   0  0  0  0  0  0  0  0  0  0  0  0
    2.5010    0.0626    1.9058 C   0  0  0  0  0  0  0  0  0  0  0  0
    3.2528   -1.1120    1.8190 C   0  0  0  0  0  0  0  0  0  0  0  0
    1.1903    0.0000    2.4629 N   0  0  0  0  0  0  0  0  0  0  0  0
   -0.0000    0.0000    1.7671 C   0  0  0  0  0  0  0  0  0  0  0  0
    0.0000    0.0000    0.0000 S   0  0  0  0  0  0  0  0  0  0  0  0
   -1.0311   -0.0117    2.5824 N   0  0  0  0  0  0  0  0  0  0  0  0
   -0.5054   -0.0163    3.8566 C   0  0  0  0  0  0  0  0  0  0  0  0
    0.8697   -0.0130    3.8244 C   0  0  2  0  0  0  0  0  0  0  0  0
    1.9095   -0.0087    4.8906 C   0  0  0  0  0  0  0  0  0  0  0  0
    2.1767    2.5506    1.5584 C   0  0  0  0  0  0  0  0  0  0  0  0
    6.0843    0.1808    0.4324 H   0  0  0  0  0  0  0  0  0  0  0  0
    4.7284    2.2585    0.5919 H   0  0  0  0  0  0  0  0  0  0  0  0
    2.8253   -2.0559    2.1571 H   0  0  0  0  0  0  0  0  0  0  0  0
   -2.2775    0.2929   -0.2607 Au  0  0  0  0  0  0  0  0  0  0  0  0
   -1.1453   -0.0208    4.7380 H   0  0  0  0  0  0  0  0  0  0  0  0
    2.5506   -0.9053    4.8498 H   0  0  0  0  0  0  0  0  0  0  0  0
    2.5759    0.8669    4.8118 H   0  0  0  0  0  0  0  0  0  0  0  0
    1.4263    0.0186    5.8772 H   0  0  0  0  0  0  0  0  0  0  0  0
    1.3690    2.5264    0.8081 H   0  0  0  0  0  0  0  0  0  0  0  0
    1.6928    2.6428    2.5428 H   0  0  0  0  0  0  0  0  0  0  0  0
    2.7875    3.4466    1.3806 H   0  0  0  0  0  0  0  0  0  0  0  0
  1  2  1  0  0  0  0
  2  7  2  0  0  0  0
  3  4  2  0  0  0  0
  3  2  1  0  0  0  0
  4  5  1  0  0  0  0
  5 15  1  0  0  0  0
  5  6  2  0  0  0  0
  6  8  1  0  0  0  0
  7  6  1  0  0  0  0
  7 18  1  0  0  0  0
  8 13  1  0  0  0  0
  9  8  1  0  0  0  0
  9 11  2  0  0  0  0
 10  9  1  0  0  0  0
 11 12  2  0  0  0  0
 12 20  1  0  0  0  0
 13 12  1  0  0  0  0
 13 14  1  1  0  0  0
 14 23  1  0  0  0  0
 15 25  1  0  0  0  0
 16  3  1  0  0  0  0
 17  4  1  0  0  0  0
 19 10  1  0  0  0  0
 21 14  1  0  0  0  0
 22 14  1  0  0  0  0
 24 15  1  0  0  0  0
 26 15  1  0  0  0  0
M  RAD  1  13   2
M  END
