314356029.xyz
 OpenBabel07262113483D
Cn1c(S)nnc1c1ccc2c(c1)COC2
 27 29  0  0  0  0  0  0  0  0999 V2000
   -2.5015    0.1342    1.9745 C   0  0  0  0  0  0  0  0  0  0  0  0
   -1.1550    0.0039    2.4997 N   0  0  0  0  0  0  0  0  0  0  0  0
    0.0000    0.0000    1.7561 C   0  0  0  0  0  0  0  0  0  0  0  0
    0.0000    0.0000    0.0000 S   0  0  0  0  0  0  0  0  0  0  0  0
    1.0515    0.0000    2.5558 N   0  0  0  0  0  0  0  0  0  0  0  0
    0.5979    0.0022    3.8391 N   0  0  0  0  0  0  0  0  0  0  0  0
   -0.7186   -0.0059    3.8179 C   0  0  0  0  0  0  0  0  0  0  0  0
   -1.5648   -0.0037    5.0164 C   0  0  0  0  0  0  0  0  0  0  0  0
   -2.8167   -0.6474    5.0661 C   0  0  0  0  0  0  0  0  0  0  0  0
   -3.5815   -0.6464    6.2369 C   0  0  0  0  0  0  0  0  0  0  0  0
   -3.0838   -0.0014    7.3659 C   0  0  0  0  0  0  0  0  0  0  0  0
   -1.8330    0.6228    7.3307 C   0  0  0  0  0  0  0  0  0  0  0  0
   -1.0664    0.6296    6.1731 C   0  0  0  0  0  0  0  0  0  0  0  0
   -1.5548    1.2022    8.6931 C   0  0  0  0  0  0  0  0  0  0  0  0
   -2.7575    1.0215    9.4303 O   0  0  0  0  0  0  0  0  0  0  0  0
   -3.6551    0.1554    8.7501 C   0  0  0  0  0  0  0  0  0  0  0  0
   -2.9526   -0.8482    1.7641 H   0  0  0  0  0  0  0  0  0  0  0  0
   -3.1282    0.6705    2.6977 H   0  0  0  0  0  0  0  0  0  0  0  0
   -2.4632    0.7099    1.0391 H   0  0  0  0  0  0  0  0  0  0  0  0
    2.2996    0.2482   -0.2045 Au  0  0  0  0  0  0  0  0  0  0  0  0
   -3.1889   -1.1858    4.1941 H   0  0  0  0  0  0  0  0  0  0  0  0
   -4.5481   -1.1561    6.2575 H   0  0  0  0  0  0  0  0  0  0  0  0
   -0.0863    1.1072    6.1283 H   0  0  0  0  0  0  0  0  0  0  0  0
   -0.7073    0.6827    9.1853 H   0  0  0  0  0  0  0  0  0  0  0  0
   -1.3055    2.2779    8.6588 H   0  0  0  0  0  0  0  0  0  0  0  0
   -4.6657    0.6032    8.7493 H   0  0  0  0  0  0  0  0  0  0  0  0
   -3.7302   -0.8233    9.2682 H   0  0  0  0  0  0  0  0  0  0  0  0
  1  2  1  0  0  0  0
  1 18  1  0  0  0  0
  2  7  1  0  0  0  0
  3  2  1  0  0  0  0
  3  5  2  0  0  0  0
  4  3  1  0  0  0  0
  5  6  1  0  0  0  0
  7  6  2  0  0  0  0
  7  8  1  0  0  0  0
  8  9  2  0  0  0  0
  8 13  1  0  0  0  0
  9 10  1  0  0  0  0
 10 22  1  0  0  0  0
 10 11  2  0  0  0  0
 11 16  1  0  0  0  0
 12 11  1  0  0  0  0
 12 14  1  0  0  0  0
 13 12  2  0  0  0  0
 14 24  1  0  0  0  0
 14 15  1  0  0  0  0
 16 27  1  0  0  0  0
 16 15  1  0  0  0  0
 17  1  1  0  0  0  0
 19  1  1  0  0  0  0
 20  4  1  0  0  0  0
 21  9  1  0  0  0  0
 23 13  1  0  0  0  0
 25 14  1  0  0  0  0
 26 16  1  0  0  0  0
M  END
