314460807.xyz
 OpenBabel07262113483D
CN(CC(n1c(S)nc2c1n(C)nc2C)C)C
 36 37  0  0  1  0  0  0  0  0999 V2000
    4.6709    2.5392    3.3913 C   0  0  0  0  0  0  0  0  0  0  0  0
    3.3339    2.0312    3.1468 N   0  0  0  0  0  0  0  0  0  0  0  0
    3.1668    1.3895    1.8470 C   0  0  0  0  0  0  0  0  0  0  0  0
    2.5548   -0.0196    1.9164 C   0  0  2  0  0  0  0  0  0  0  0  0
    1.2106   -0.0000    2.4939 N   0  0  0  0  0  0  0  0  0  0  0  0
   -0.0000   -0.0000    1.7354 C   0  0  0  0  0  0  0  0  0  0  0  0
    0.0000    0.0000    0.0000 S   0  0  0  0  0  0  0  0  0  0  0  0
   -1.0821    0.0282    2.4975 N   0  0  0  0  0  0  0  0  0  0  0  0
   -0.6139    0.0604    3.7739 C   0  0  0  0  0  0  0  0  0  0  0  0
    0.7911    0.0458    3.7972 C   0  0  2  0  0  0  0  0  0  0  0  0
    1.1850    0.1181    5.0932 N   0  0  0  0  0  0  0  0  0  0  0  0
    2.4909    0.1288    5.7101 C   0  0  0  0  0  0  0  0  0  0  0  0
    0.0723    0.1570    5.9077 N   0  0  0  0  0  0  0  0  0  0  0  0
   -1.0119    0.1310    5.1464 C   0  0  0  0  0  0  0  0  0  0  0  0
   -2.3853    0.1776    5.7285 C   0  0  0  0  0  0  0  0  0  0  0  0
    3.4553   -1.0469    2.5959 C   0  0  0  0  0  0  0  0  0  0  0  0
    2.3096    3.0195    3.4445 C   0  0  0  0  0  0  0  0  0  0  0  0
    4.9474    3.3883    2.7265 H   0  0  0  0  0  0  0  0  0  0  0  0
    4.7518    2.8935    4.4315 H   0  0  0  0  0  0  0  0  0  0  0  0
    5.4153    1.7406    3.2516 H   0  0  0  0  0  0  0  0  0  0  0  0
    4.1459    1.2933    1.3503 H   0  0  0  0  0  0  0  0  0  0  0  0
    2.5400    2.0046    1.1743 H   0  0  0  0  0  0  0  0  0  0  0  0
    2.3971   -0.3365    0.8761 H   0  0  0  0  0  0  0  0  0  0  0  0
    0.1316   -2.2588   -0.5425 Au  0  0  0  0  0  0  0  0  0  0  0  0
    3.1726    0.7217    5.0856 H   0  0  0  0  0  0  0  0  0  0  0  0
    2.8903   -0.8912    5.8421 H   0  0  0  0  0  0  0  0  0  0  0  0
    2.3798    0.5932    6.6976 H   0  0  0  0  0  0  0  0  0  0  0  0
   -2.3283    0.2393    6.8238 H   0  0  0  0  0  0  0  0  0  0  0  0
   -2.9620   -0.7199    5.4517 H   0  0  0  0  0  0  0  0  0  0  0  0
   -2.9446    1.0488    5.3505 H   0  0  0  0  0  0  0  0  0  0  0  0
    3.7359   -0.7410    3.6107 H   0  0  0  0  0  0  0  0  0  0  0  0
    2.9560   -2.0258    2.6475 H   0  0  0  0  0  0  0  0  0  0  0  0
    4.3817   -1.1652    2.0136 H   0  0  0  0  0  0  0  0  0  0  0  0
    2.4109    3.9397    2.8271 H   0  0  0  0  0  0  0  0  0  0  0  0
    1.3088    2.6030    3.2697 H   0  0  0  0  0  0  0  0  0  0  0  0
    2.3660    3.3139    4.5044 H   0  0  0  0  0  0  0  0  0  0  0  0
  1 19  1  0  0  0  0
  2  1  1  0  0  0  0
  2 17  1  0  0  0  0
  3  4  1  0  0  0  0
  3  2  1  0  0  0  0
  4 23  1  6  0  0  0
  4  5  1  0  0  0  0
  4 16  1  0  0  0  0
  5 10  1  0  0  0  0
  6  5  1  0  0  0  0
  6  8  2  0  0  0  0
  7  6  1  0  0  0  0
  8  9  2  0  0  0  0
  9 14  1  0  0  0  0
 10  9  1  6  0  0  0
 10 11  1  0  0  0  0
 11 12  1  0  0  0  0
 11 13  1  0  0  0  0
 12 26  1  0  0  0  0
 12 27  1  0  0  0  0
 14 15  1  0  0  0  0
 14 13  2  0  0  0  0
 15 28  1  0  0  0  0
 16 32  1  0  0  0  0
 16 31  1  0  0  0  0
 17 36  1  0  0  0  0
 18  1  1  0  0  0  0
 20  1  1  0  0  0  0
 21  3  1  0  0  0  0
 22  3  1  0  0  0  0
 24  7  1  0  0  0  0
 25 12  1  0  0  0  0
 29 15  1  0  0  0  0
 30 15  1  0  0  0  0
 33 16  1  0  0  0  0
 34 17  1  0  0  0  0
 35 17  1  0  0  0  0
M  RAD  1  10   2
M  END
