314446483.xyz
 OpenBabel07262113483D
CCC1(CC)OCCC(C1)n1c(C)nnc1S
 38 39  0  0  1  0  0  0  0  0999 V2000
    3.8006    2.0626   -0.8694 C   0  0  0  0  0  0  0  0  0  0  0  0
    4.6462    1.2279    0.0918 C   0  0  0  0  0  0  0  0  0  0  0  0
    4.5283    1.5699    1.5937 C   0  0  0  0  0  0  0  0  0  0  0  0
    5.1412    2.9520    1.8858 C   0  0  0  0  0  0  0  0  0  0  0  0
    5.2583    3.3058    3.3668 C   0  0  0  0  0  0  0  0  0  0  0  0
    5.3489    0.5957    2.2770 O   0  0  0  0  0  0  0  0  0  0  0  0
    4.7070   -0.2828    3.1750 C   0  0  0  0  0  0  0  0  0  0  0  0
    3.4932   -0.9654    2.5474 C   0  0  0  0  0  0  0  0  0  0  0  0
    2.5086    0.0749    1.9586 C   0  0  2  0  0  0  0  0  0  0  0  0
    3.0734    1.4939    2.0818 C   0  0  0  0  0  0  0  0  0  0  0  0
    1.1537    0.0000    2.5088 N   0  0  0  0  0  0  0  0  0  0  0  0
    0.7110    0.0427    3.8236 C   0  0  0  0  0  0  0  0  0  0  0  0
    1.5675    0.0869    5.0424 C   0  0  0  0  0  0  0  0  0  0  0  0
   -0.5999    0.0439    3.8439 N   0  0  0  0  0  0  0  0  0  0  0  0
   -1.0528    0.0185    2.5527 N   0  0  0  0  0  0  0  0  0  0  0  0
    0.0000   -0.0000    1.7612 C   0  0  0  0  0  0  0  0  0  0  0  0
    0.0000    0.0000    0.0000 S   0  0  0  0  0  0  0  0  0  0  0  0
    4.0188    1.7838   -1.9119 H   0  0  0  0  0  0  0  0  0  0  0  0
    2.7208    1.9077   -0.7144 H   0  0  0  0  0  0  0  0  0  0  0  0
    4.0038    3.1404   -0.7710 H   0  0  0  0  0  0  0  0  0  0  0  0
    5.7142    1.3132   -0.1662 H   0  0  0  0  0  0  0  0  0  0  0  0
    4.4030    0.1605   -0.0345 H   0  0  0  0  0  0  0  0  0  0  0  0
    6.1473    2.9590    1.4350 H   0  0  0  0  0  0  0  0  0  0  0  0
    4.5549    3.7216    1.3572 H   0  0  0  0  0  0  0  0  0  0  0  0
    4.2761    3.4178    3.8528 H   0  0  0  0  0  0  0  0  0  0  0  0
    5.8208    2.5270    3.9031 H   0  0  0  0  0  0  0  0  0  0  0  0
    5.7927    4.2593    3.4974 H   0  0  0  0  0  0  0  0  0  0  0  0
    4.4130    0.2442    4.1033 H   0  0  0  0  0  0  0  0  0  0  0  0
    5.4605   -1.0324    3.4602 H   0  0  0  0  0  0  0  0  0  0  0  0
    3.8399   -1.6276    1.7400 H   0  0  0  0  0  0  0  0  0  0  0  0
    2.9917   -1.6082    3.2844 H   0  0  0  0  0  0  0  0  0  0  0  0
    2.3800   -0.1485    0.8922 H   0  0  0  0  0  0  0  0  0  0  0  0
    2.4485    2.1926    1.5086 H   0  0  0  0  0  0  0  0  0  0  0  0
    3.0180    1.8166    3.1299 H   0  0  0  0  0  0  0  0  0  0  0  0
    0.9011    0.2054    5.9062 H   0  0  0  0  0  0  0  0  0  0  0  0
    2.1527   -0.8355    5.1817 H   0  0  0  0  0  0  0  0  0  0  0  0
    2.2739    0.9314    5.0271 H   0  0  0  0  0  0  0  0  0  0  0  0
   -2.3156   -0.0140   -0.1858 Au  0  0  0  0  0  0  0  0  0  0  0  0
  1 20  1  0  0  0  0
  1 19  1  0  0  0  0
  1  2  1  0  0  0  0
  2  3  1  0  0  0  0
  3  4  1  0  0  0  0
  3 10  1  0  0  0  0
  3  6  1  0  0  0  0
  4  5  1  0  0  0  0
  5 27  1  0  0  0  0
  5 25  1  0  0  0  0
  5 26  1  0  0  0  0
  6  7  1  0  0  0  0
  7 29  1  0  0  0  0
  7 28  1  0  0  0  0
  8  7  1  0  0  0  0
  8 31  1  0  0  0  0
  9 32  1  6  0  0  0
  9 10  1  0  0  0  0
  9 11  1  0  0  0  0
  9  8  1  0  0  0  0
 10 34  1  0  0  0  0
 11 12  1  0  0  0  0
 12 14  2  0  0  0  0
 12 13  1  0  0  0  0
 13 36  1  0  0  0  0
 13 35  1  0  0  0  0
 15 14  1  0  0  0  0
 16 11  1  0  0  0  0
 16 15  2  0  0  0  0
 17 16  1  0  0  0  0
 18  1  1  0  0  0  0
 21  2  1  0  0  0  0
 22  2  1  0  0  0  0
 23  4  1  0  0  0  0
 24  4  1  0  0  0  0
 30  8  1  0  0  0  0
 33 10  1  0  0  0  0
 37 13  1  0  0  0  0
 38 17  1  0  0  0  0
M  END
