314457996.xyz
 OpenBabel07262113483D
CN1CCN(CC1)n1c(S)nc2c1cccc2
 33 35  0  0  0  0  0  0  0  0999 V2000
    5.9784   -0.2779    0.0517 C   0  0  0  0  0  0  0  0  0  0  0  0
    4.6192    0.2113    0.0475 N   0  0  0  0  0  0  0  0  0  0  0  0
    3.5799   -0.8119   -0.0330 C   0  0  0  0  0  0  0  0  0  0  0  0
    2.9734   -1.1770    1.3254 C   0  0  0  0  0  0  0  0  0  0  0  0
    2.4881    0.0365    2.0061 N   0  0  0  0  0  0  0  0  0  0  0  0
    2.9074    1.3156    1.4346 C   0  0  0  0  0  0  0  0  0  0  0  0
    4.3835    1.2161    1.0795 C   0  0  0  0  0  0  0  0  0  0  0  0
    1.1970   -0.0000    2.4745 N   0  0  0  0  0  0  0  0  0  0  0  0
    0.0000    0.0000    1.7596 C   0  0  0  0  0  0  0  0  0  0  0  0
    0.0000    0.0000    0.0000 S   0  0  0  0  0  0  0  0  0  0  0  0
   -1.0524   -0.0143    2.5445 N   0  0  0  0  0  0  0  0  0  0  0  0
   -0.5608   -0.0198    3.8437 C   0  0  0  0  0  0  0  0  0  0  0  0
    0.8547   -0.0106    3.8238 C   0  0  0  0  0  0  0  0  0  0  0  0
    1.6324   -0.0108    4.9800 C   0  0  0  0  0  0  0  0  0  0  0  0
    0.9430   -0.0225    6.1949 C   0  0  0  0  0  0  0  0  0  0  0  0
   -0.4666   -0.0334    6.2389 C   0  0  0  0  0  0  0  0  0  0  0  0
   -1.2336   -0.0324    5.0731 C   0  0  0  0  0  0  0  0  0  0  0  0
    6.1523   -0.9383   -0.8119 H   0  0  0  0  0  0  0  0  0  0  0  0
    6.2547   -0.8382    0.9759 H   0  0  0  0  0  0  0  0  0  0  0  0
    6.6796    0.5686   -0.0345 H   0  0  0  0  0  0  0  0  0  0  0  0
    3.9996   -1.7141   -0.5021 H   0  0  0  0  0  0  0  0  0  0  0  0
    2.7644   -0.4678   -0.6921 H   0  0  0  0  0  0  0  0  0  0  0  0
    2.1323   -1.8723    1.1800 H   0  0  0  0  0  0  0  0  0  0  0  0
    3.7204   -1.6880    1.9590 H   0  0  0  0  0  0  0  0  0  0  0  0
    2.3153    1.5983    0.5416 H   0  0  0  0  0  0  0  0  0  0  0  0
    2.7582    2.0984    2.1934 H   0  0  0  0  0  0  0  0  0  0  0  0
    4.7509    2.2020    0.7425 H   0  0  0  0  0  0  0  0  0  0  0  0
    4.9340    0.9706    2.0154 H   0  0  0  0  0  0  0  0  0  0  0  0
   -2.3045   -0.0639   -0.2386 Au  0  0  0  0  0  0  0  0  0  0  0  0
    2.7219   -0.0033    4.9230 H   0  0  0  0  0  0  0  0  0  0  0  0
    1.5068   -0.0237    7.1307 H   0  0  0  0  0  0  0  0  0  0  0  0
   -0.9669   -0.0426    7.2101 H   0  0  0  0  0  0  0  0  0  0  0  0
   -2.3248   -0.0404    5.1038 H   0  0  0  0  0  0  0  0  0  0  0  0
  1 19  1  0  0  0  0
  2  1  1  0  0  0  0
  2  7  1  0  0  0  0
  3  2  1  0  0  0  0
  3  4  1  0  0  0  0
  4 24  1  0  0  0  0
  4  5  1  0  0  0  0
  5  8  1  0  0  0  0
  6  5  1  0  0  0  0
  6 26  1  0  0  0  0
  7  6  1  0  0  0  0
  7 28  1  0  0  0  0
  8 13  1  0  0  0  0
  9  8  1  0  0  0  0
  9 11  2  0  0  0  0
 10  9  1  0  0  0  0
 11 12  2  0  0  0  0
 12 17  1  0  0  0  0
 13 12  1  0  0  0  0
 13 14  2  0  0  0  0
 14 15  1  0  0  0  0
 15 16  1  0  0  0  0
 15 31  1  0  0  0  0
 16 32  1  0  0  0  0
 17 33  1  0  0  0  0
 17 16  2  0  0  0  0
 18  1  1  0  0  0  0
 20  1  1  0  0  0  0
 21  3  1  0  0  0  0
 22  3  1  0  0  0  0
 23  4  1  0  0  0  0
 25  6  1  0  0  0  0
 27  7  1  0  0  0  0
 29 10  1  0  0  0  0
 30 14  1  0  0  0  0
M  RAD  1  15   2
M  END
