314421439.xyz
 OpenBabel07262113483D
SCC(Cn1c(C)nc2c1CCCC2)(C)C
 38 39  0  0  1  0  0  0  0  0999 V2000
    0.0000    0.0000    0.0000 S   0  0  0  0  0  0  0  0  0  0  0  0
    0.0000   -0.0000    1.8373 C   0  0  0  0  0  0  0  0  0  0  0  0
    1.3583   -0.0000    2.5686 C   0  0  0  0  0  0  0  0  0  0  0  0
    1.0826   -0.0780    4.0989 C   0  0  0  0  0  0  0  0  0  0  0  0
    0.3604   -1.2386    4.5850 N   0  0  0  0  0  0  0  0  0  0  0  0
    0.9049   -2.4191    5.0660 C   0  0  0  0  0  0  0  0  0  0  0  0
    2.3694   -2.6869    5.1879 C   0  0  0  0  0  0  0  0  0  0  0  0
   -0.0353   -3.2528    5.4630 N   0  0  0  0  0  0  0  0  0  0  0  0
   -1.2321   -2.6120    5.2542 C   0  0  0  0  0  0  0  0  0  0  0  0
   -1.0220   -1.3585    4.7245 C   0  0  1  0  0  0  0  0  0  0  0  0
   -2.0817   -0.3320    4.4750 C   0  0  0  0  0  0  0  0  0  0  0  0
   -3.3577   -0.7533    5.2283 C   0  0  0  0  0  0  0  0  0  0  0  0
   -3.6784   -2.2408    5.0178 C   0  0  0  0  0  0  0  0  0  0  0  0
   -2.5851   -3.1516    5.6016 C   0  0  0  0  0  0  0  0  0  0  0  0
    2.1209    1.3106    2.3349 C   0  0  0  0  0  0  0  0  0  0  0  0
    2.2076   -1.1864    2.1001 C   0  0  0  0  0  0  0  0  0  0  0  0
    0.2796    2.1950   -0.6009 Au  0  0  0  0  0  0  0  0  0  0  0  0
   -0.6366    0.8188    2.1974 H   0  0  0  0  0  0  0  0  0  0  0  0
   -0.5279   -0.9403    2.0652 H   0  0  0  0  0  0  0  0  0  0  0  0
    2.0491   -0.0364    4.6225 H   0  0  0  0  0  0  0  0  0  0  0  0
    0.5215    0.8202    4.4013 H   0  0  0  0  0  0  0  0  0  0  0  0
    2.9050   -1.8558    5.6764 H   0  0  0  0  0  0  0  0  0  0  0  0
    2.8563   -2.8686    4.2181 H   0  0  0  0  0  0  0  0  0  0  0  0
    2.4891   -3.5863    5.8049 H   0  0  0  0  0  0  0  0  0  0  0  0
   -1.7582    0.6712    4.8050 H   0  0  0  0  0  0  0  0  0  0  0  0
   -2.3123   -0.2381    3.3991 H   0  0  0  0  0  0  0  0  0  0  0  0
   -3.2211   -0.5630    6.3073 H   0  0  0  0  0  0  0  0  0  0  0  0
   -4.2030   -0.1286    4.8984 H   0  0  0  0  0  0  0  0  0  0  0  0
   -4.6546   -2.4842    5.4666 H   0  0  0  0  0  0  0  0  0  0  0  0
   -3.7742   -2.4330    3.9339 H   0  0  0  0  0  0  0  0  0  0  0  0
   -2.6934   -4.1840    5.2298 H   0  0  0  0  0  0  0  0  0  0  0  0
   -2.6882   -3.2139    6.7009 H   0  0  0  0  0  0  0  0  0  0  0  0
    3.0444    1.3357    2.9352 H   0  0  0  0  0  0  0  0  0  0  0  0
    2.4054    1.4159    1.2786 H   0  0  0  0  0  0  0  0  0  0  0  0
    1.5121    2.1873    2.6119 H   0  0  0  0  0  0  0  0  0  0  0  0
    2.3779   -1.1212    1.0159 H   0  0  0  0  0  0  0  0  0  0  0  0
    3.1865   -1.1933    2.6031 H   0  0  0  0  0  0  0  0  0  0  0  0
    1.7037   -2.1432    2.3044 H   0  0  0  0  0  0  0  0  0  0  0  0
  1  2  1  0  0  0  0
  2 19  1  0  0  0  0
  2 18  1  0  0  0  0
  2  3  1  0  0  0  0
  3  4  1  0  0  0  0
  4 21  1  0  0  0  0
  4  5  1  0  0  0  0
  4 20  1  0  0  0  0
  5 10  1  0  0  0  0
  5  6  1  0  0  0  0
  6  7  1  0  0  0  0
  6  8  2  0  0  0  0
  7 22  1  0  0  0  0
  7 24  1  0  0  0  0
  9  8  2  0  0  0  0
  9 14  1  0  0  0  0
 10  9  1  1  0  0  0
 11 10  1  0  0  0  0
 11 25  1  0  0  0  0
 11 12  1  0  0  0  0
 12 27  1  0  0  0  0
 13 12  1  0  0  0  0
 13 29  1  0  0  0  0
 13 14  1  0  0  0  0
 14 32  1  0  0  0  0
 15  3  1  0  0  0  0
 15 35  1  0  0  0  0
 15 33  1  0  0  0  0
 16 38  1  0  0  0  0
 16  3  1  0  0  0  0
 16 37  1  0  0  0  0
 17  1  1  0  0  0  0
 23  7  1  0  0  0  0
 26 11  1  0  0  0  0
 28 12  1  0  0  0  0
 30 13  1  0  0  0  0
 31 14  1  0  0  0  0
 34 15  1  0  0  0  0
 36 16  1  0  0  0  0
M  RAD  1  10   2
M  END
