314563667.xyz
 OpenBabel07262113483D
SCC1(CCOCC1)CN1CCCC(C1=O)C
 40 41  0  0  1  0  0  0  0  0999 V2000
    0.0000    0.0000    0.0000 S   0  0  0  0  0  0  0  0  0  0  0  0
   -0.0000    0.0000    1.8451 C   0  0  0  0  0  0  0  0  0  0  0  0
    1.3876    0.0000    2.5254 C   0  0  0  0  0  0  0  0  0  0  0  0
    2.3287   -1.0865    1.9646 C   0  0  0  0  0  0  0  0  0  0  0  0
    1.9016   -2.4953    2.3692 C   0  0  0  0  0  0  0  0  0  0  0  0
    1.8014   -2.6376    3.7701 O   0  0  0  0  0  0  0  0  0  0  0  0
    0.8531   -1.7526    4.3249 C   0  0  0  0  0  0  0  0  0  0  0  0
    1.1921   -0.2917    4.0347 C   0  0  0  0  0  0  0  0  0  0  0  0
    2.0049    1.4206    2.4238 C   0  0  0  0  0  0  0  0  0  0  0  0
    1.8684    2.0864    1.1343 N   0  0  0  0  0  0  0  0  0  0  0  0
    2.9613    1.8936    0.1802 C   0  0  0  0  0  0  0  0  0  0  0  0
    2.6273    2.3897   -1.2167 C   0  0  0  0  0  0  0  0  0  0  0  0
    2.0258    3.7868   -1.1475 C   0  0  0  0  0  0  0  0  0  0  0  0
    0.7313    3.7588   -0.3329 C   0  0  1  0  0  0  0  0  0  0  0  0
    0.8727    3.0312    1.0076 C   0  0  0  0  0  0  0  0  0  0  0  0
    0.0767    3.2391    1.9154 O   0  0  0  0  0  0  0  0  0  0  0  0
    0.1205    5.1444   -0.1294 C   0  0  0  0  0  0  0  0  0  0  0  0
   -0.5379   -2.1610   -0.5651 Au  0  0  0  0  0  0  0  0  0  0  0  0
   -0.5385    0.9177    2.1251 H   0  0  0  0  0  0  0  0  0  0  0  0
   -0.6103   -0.8441    2.1824 H   0  0  0  0  0  0  0  0  0  0  0  0
    3.3439   -0.9094    2.3575 H   0  0  0  0  0  0  0  0  0  0  0  0
    2.3757   -1.0243    0.8679 H   0  0  0  0  0  0  0  0  0  0  0  0
    2.6418   -3.2349    2.0285 H   0  0  0  0  0  0  0  0  0  0  0  0
    0.9341   -2.7544    1.8858 H   0  0  0  0  0  0  0  0  0  0  0  0
    0.8435   -1.9367    5.4098 H   0  0  0  0  0  0  0  0  0  0  0  0
   -0.1608   -1.9973    3.9436 H   0  0  0  0  0  0  0  0  0  0  0  0
    0.4056    0.3636    4.4463 H   0  0  0  0  0  0  0  0  0  0  0  0
    2.1283   -0.0415    4.5629 H   0  0  0  0  0  0  0  0  0  0  0  0
    1.5059    2.0618    3.1615 H   0  0  0  0  0  0  0  0  0  0  0  0
    3.0761    1.3699    2.6806 H   0  0  0  0  0  0  0  0  0  0  0  0
    3.2040    0.8225    0.1497 H   0  0  0  0  0  0  0  0  0  0  0  0
    3.8616    2.4158    0.5613 H   0  0  0  0  0  0  0  0  0  0  0  0
    3.5438    2.3720   -1.8275 H   0  0  0  0  0  0  0  0  0  0  0  0
    1.9079    1.6978   -1.6843 H   0  0  0  0  0  0  0  0  0  0  0  0
    1.8204    4.1812   -2.1556 H   0  0  0  0  0  0  0  0  0  0  0  0
    2.7442    4.4836   -0.6776 H   0  0  0  0  0  0  0  0  0  0  0  0
    0.0022    3.1361   -0.8855 H   0  0  0  0  0  0  0  0  0  0  0  0
   -0.8053    5.0768    0.4560 H   0  0  0  0  0  0  0  0  0  0  0  0
    0.8153    5.8031    0.4165 H   0  0  0  0  0  0  0  0  0  0  0  0
   -0.1006    5.6121   -1.1012 H   0  0  0  0  0  0  0  0  0  0  0  0
  1  2  1  0  0  0  0
  2 19  1  0  0  0  0
  2 20  1  0  0  0  0
  2  3  1  0  0  0  0
  3  8  1  0  0  0  0
  4 21  1  0  0  0  0
  4  5  1  0  0  0  0
  4  3  1  0  0  0  0
  5  6  1  0  0  0  0
  6  7  1  0  0  0  0
  7 25  1  0  0  0  0
  8  7  1  0  0  0  0
  8 27  1  0  0  0  0
  8 28  1  0  0  0  0
  9  3  1  0  0  0  0
  9 30  1  0  0  0  0
  9 29  1  0  0  0  0
 10  9  1  0  0  0  0
 11 32  1  0  0  0  0
 11 10  1  0  0  0  0
 12 13  1  0  0  0  0
 12 11  1  0  0  0  0
 13 36  1  0  0  0  0
 13 14  1  0  0  0  0
 14 37  1  6  0  0  0
 14 17  1  0  0  0  0
 14 15  1  0  0  0  0
 15 10  1  0  0  0  0
 15 16  2  0  0  0  0
 17 39  1  0  0  0  0
 17 38  1  0  0  0  0
 18  1  1  0  0  0  0
 22  4  1  0  0  0  0
 23  5  1  0  0  0  0
 24  5  1  0  0  0  0
 26  7  1  0  0  0  0
 31 11  1  0  0  0  0
 33 12  1  0  0  0  0
 34 12  1  0  0  0  0
 35 13  1  0  0  0  0
 40 17  1  0  0  0  0
M  END
