314616843.xyz
 OpenBabel07262113483D
CN1CCC(CC1)n1c(S)nc2c1ccc(c2)C
 37 39  0  0  0  0  0  0  0  0999 V2000
    6.0132   -0.0132   -0.4775 C   0  0  0  0  0  0  0  0  0  0  0  0
    4.6813   -0.0104    0.0858 N   0  0  0  0  0  0  0  0  0  0  0  0
    4.3937   -1.2132    0.8495 C   0  0  0  0  0  0  0  0  0  0  0  0
    2.9279   -1.2656    1.2749 C   0  0  0  0  0  0  0  0  0  0  0  0
    2.5585   -0.0022    2.0578 C   0  0  0  0  0  0  0  0  0  0  0  0
    2.9299    1.2554    1.2665 C   0  0  0  0  0  0  0  0  0  0  0  0
    4.3956    1.1977    0.8417 C   0  0  0  0  0  0  0  0  0  0  0  0
    1.1692    0.0000    2.5109 N   0  0  0  0  0  0  0  0  0  0  0  0
   -0.0000   -0.0000    1.7655 C   0  0  0  0  0  0  0  0  0  0  0  0
    0.0000    0.0000    0.0000 S   0  0  0  0  0  0  0  0  0  0  0  0
   -1.0858   -0.0004    2.5128 N   0  0  0  0  0  0  0  0  0  0  0  0
   -0.6438   -0.0010    3.8227 C   0  0  0  0  0  0  0  0  0  0  0  0
    0.7722   -0.0009    3.8475 C   0  0  0  0  0  0  0  0  0  0  0  0
    1.4835   -0.0019    5.0502 C   0  0  0  0  0  0  0  0  0  0  0  0
    0.7401   -0.0030    6.2301 C   0  0  0  0  0  0  0  0  0  0  0  0
   -0.6760   -0.0030    6.2358 C   0  0  0  0  0  0  0  0  0  0  0  0
   -1.3690   -0.0020    5.0227 C   0  0  0  0  0  0  0  0  0  0  0  0
   -1.4150   -0.0046    7.5522 C   0  0  0  0  0  0  0  0  0  0  0  0
    6.1581    0.8752   -1.1120 H   0  0  0  0  0  0  0  0  0  0  0  0
    6.8168   -0.0113    0.2959 H   0  0  0  0  0  0  0  0  0  0  0  0
    6.1568   -0.9060   -1.1061 H   0  0  0  0  0  0  0  0  0  0  0  0
    4.6307   -2.0910    0.2277 H   0  0  0  0  0  0  0  0  0  0  0  0
    5.0455   -1.2819    1.7557 H   0  0  0  0  0  0  0  0  0  0  0  0
    2.2928   -1.3428    0.3790 H   0  0  0  0  0  0  0  0  0  0  0  0
    2.7411   -2.1560    1.8954 H   0  0  0  0  0  0  0  0  0  0  0  0
    3.1587    0.0006    2.9808 H   0  0  0  0  0  0  0  0  0  0  0  0
    2.7443    2.1503    1.8809 H   0  0  0  0  0  0  0  0  0  0  0  0
    2.2953    1.3278    0.3699 H   0  0  0  0  0  0  0  0  0  0  0  0
    4.6342    2.0712    0.2143 H   0  0  0  0  0  0  0  0  0  0  0  0
    5.0473    1.2712    1.7477 H   0  0  0  0  0  0  0  0  0  0  0  0
   -2.3079   -0.0076   -0.2289 Au  0  0  0  0  0  0  0  0  0  0  0  0
    2.5748   -0.0020    5.0809 H   0  0  0  0  0  0  0  0  0  0  0  0
    1.2695   -0.0038    7.1868 H   0  0  0  0  0  0  0  0  0  0  0  0
   -2.4608   -0.0021    4.9962 H   0  0  0  0  0  0  0  0  0  0  0  0
   -1.1606   -0.8927    8.1549 H   0  0  0  0  0  0  0  0  0  0  0  0
   -1.1571    0.8797    8.1590 H   0  0  0  0  0  0  0  0  0  0  0  0
   -2.5044   -0.0021    7.4020 H   0  0  0  0  0  0  0  0  0  0  0  0
  1  2  1  0  0  0  0
  1 20  1  0  0  0  0
  2  7  1  0  0  0  0
  2  3  1  0  0  0  0
  3  4  1  0  0  0  0
  3 23  1  0  0  0  0
  4 25  1  0  0  0  0
  4  5  1  0  0  0  0
  5  8  1  0  0  0  0
  5 26  1  0  0  0  0
  6 27  1  0  0  0  0
  6  5  1  0  0  0  0
  7  6  1  0  0  0  0
  7 30  1  0  0  0  0
  8 13  1  0  0  0  0
  9  8  1  0  0  0  0
  9 11  2  0  0  0  0
 10  9  1  0  0  0  0
 11 12  2  0  0  0  0
 12 13  1  0  0  0  0
 12 17  1  0  0  0  0
 13 14  2  0  0  0  0
 14 32  1  0  0  0  0
 14 15  1  0  0  0  0
 15 16  2  0  0  0  0
 15 33  1  0  0  0  0
 16 18  1  0  0  0  0
 17 16  1  0  0  0  0
 18 35  1  0  0  0  0
 18 36  1  0  0  0  0
 19  1  1  0  0  0  0
 21  1  1  0  0  0  0
 22  3  1  0  0  0  0
 24  4  1  0  0  0  0
 28  6  1  0  0  0  0
 29  7  1  0  0  0  0
 31 10  1  0  0  0  0
 34 17  1  0  0  0  0
 37 18  1  0  0  0  0
M  RAD  1  17   2
M  END
