314606268.xyz
 OpenBabel07262113483D
Sc1nccn1c1ccc(cc1)N1CCCCC1
 35 37  0  0  0  0  0  0  0  0999 V2000
    0.0000    0.0000    0.0000 S   0  0  0  0  0  0  0  0  0  0  0  0
    0.0000    0.0000    1.7476 C   0  0  0  0  0  0  0  0  0  0  0  0
    1.0797   -0.0000    2.5110 N   0  0  0  0  0  0  0  0  0  0  0  0
    0.6361    0.0532    3.8004 C   0  0  0  0  0  0  0  0  0  0  0  0
   -0.7458    0.0611    3.8361 C   0  0  0  0  0  0  0  0  0  0  0  0
   -1.1558    0.0484    2.5217 N   0  0  0  0  0  0  0  0  0  0  0  0
   -2.4950   -0.0720    2.0555 C   0  0  0  0  0  0  0  0  0  0  0  0
   -3.0762    0.9355    1.2809 C   0  0  0  0  0  0  0  0  0  0  0  0
   -4.3600    0.7846    0.7708 C   0  0  0  0  0  0  0  0  0  0  0  0
   -5.1148   -0.3921    1.0110 C   0  0  0  0  0  0  0  0  0  0  0  0
   -4.5095   -1.4015    1.8007 C   0  0  0  0  0  0  0  0  0  0  0  0
   -3.2225   -1.2396    2.3081 C   0  0  0  0  0  0  0  0  0  0  0  0
   -6.3849   -0.5463    0.4976 N   0  0  0  0  0  0  0  0  0  0  0  0
   -6.8728    0.3109   -0.5776 C   0  0  0  0  0  0  0  0  0  0  0  0
   -7.8862   -0.4377   -1.4434 C   0  0  0  0  0  0  0  0  0  0  0  0
   -9.1121   -0.9023   -0.6362 C   0  0  0  0  0  0  0  0  0  0  0  0
   -8.7373   -1.1637    0.8343 C   0  0  0  0  0  0  0  0  0  0  0  0
   -7.2772   -1.5875    0.9930 C   0  0  0  0  0  0  0  0  0  0  0  0
   -1.2554   -1.8935   -0.4773 Au  0  0  0  0  0  0  0  0  0  0  0  0
    1.3249    0.0818    4.6441 H   0  0  0  0  0  0  0  0  0  0  0  0
   -1.4625    0.0844    4.6528 H   0  0  0  0  0  0  0  0  0  0  0  0
   -2.5088    1.8436    1.0740 H   0  0  0  0  0  0  0  0  0  0  0  0
   -4.7908    1.6032    0.1962 H   0  0  0  0  0  0  0  0  0  0  0  0
   -5.0334   -2.3361    1.9960 H   0  0  0  0  0  0  0  0  0  0  0  0
   -2.7625   -2.0395    2.8920 H   0  0  0  0  0  0  0  0  0  0  0  0
   -6.0194    0.6118   -1.2033 H   0  0  0  0  0  0  0  0  0  0  0  0
   -7.3220    1.2458   -0.1838 H   0  0  0  0  0  0  0  0  0  0  0  0
   -8.1889    0.2042   -2.2851 H   0  0  0  0  0  0  0  0  0  0  0  0
   -7.3731   -1.3086   -1.8834 H   0  0  0  0  0  0  0  0  0  0  0  0
   -9.5272   -1.8141   -1.0950 H   0  0  0  0  0  0  0  0  0  0  0  0
   -9.9106   -0.1443   -0.6802 H   0  0  0  0  0  0  0  0  0  0  0  0
   -9.3889   -1.9333    1.2762 H   0  0  0  0  0  0  0  0  0  0  0  0
   -8.8867   -0.2477    1.4292 H   0  0  0  0  0  0  0  0  0  0  0  0
   -7.1018   -2.5563    0.4805 H   0  0  0  0  0  0  0  0  0  0  0  0
   -7.0660   -1.7546    2.0599 H   0  0  0  0  0  0  0  0  0  0  0  0
  1  2  1  0  0  0  0
  2  3  2  0  0  0  0
  2  6  1  0  0  0  0
  3  4  2  0  0  0  0
  4  5  1  0  0  0  0
  4 20  1  0  0  0  0
  5 21  1  0  0  0  0
  6  5  1  0  0  0  0
  7 12  1  0  0  0  0
  7  6  1  0  0  0  0
  8  7  2  0  0  0  0
  9 10  2  0  0  0  0
  9  8  1  0  0  0  0
 10 11  1  0  0  0  0
 11 24  1  0  0  0  0
 11 12  2  0  0  0  0
 12 25  1  0  0  0  0
 13 18  1  0  0  0  0
 13 10  1  0  0  0  0
 14 27  1  0  0  0  0
 14 13  1  0  0  0  0
 15 16  1  0  0  0  0
 15 14  1  0  0  0  0
 16 17  1  0  0  0  0
 17 18  1  0  0  0  0
 17 32  1  0  0  0  0
 17 33  1  0  0  0  0
 18 35  1  0  0  0  0
 19  1  1  0  0  0  0
 22  8  1  0  0  0  0
 23  9  1  0  0  0  0
 26 14  1  0  0  0  0
 28 15  1  0  0  0  0
 29 15  1  0  0  0  0
 30 16  1  0  0  0  0
 31 16  1  0  0  0  0
 34 18  1  0  0  0  0
M  RAD  1   5   2
M  END
