314671417.xyz
 OpenBabel07262113483D
Clc1cccc(c1)n1c(S)nc2c1cc(C)cc2
 29 31  0  0  1  0  0  0  0  0999 V2000
    4.6577   -2.1852   -0.6614 Cl  0  0  0  0  0  0  0  0  0  0  0  0
    4.1867   -0.9624    0.4912 C   0  0  0  0  0  0  0  0  0  0  0  0
    5.1097    0.0125    0.8788 C   0  0  0  0  0  0  0  0  0  0  0  0
    4.7199    0.9813    1.8064 C   0  0  0  0  0  0  0  0  0  0  0  0
    3.4273    0.9884    2.3320 C   0  0  0  0  0  0  0  0  0  0  0  0
    2.5159    0.0011    1.9357 C   0  0  0  0  0  0  0  0  0  0  0  0
    2.8952   -0.9880    1.0202 C   0  0  0  0  0  0  0  0  0  0  0  0
    1.2029   -0.0000    2.4696 N   0  0  0  0  0  0  0  0  0  0  0  0
   -0.0000   -0.0000    1.7624 C   0  0  0  0  0  0  0  0  0  0  0  0
    0.0000    0.0000    0.0000 S   0  0  0  0  0  0  0  0  0  0  0  0
   -1.0497    0.0360    2.5474 N   0  0  0  0  0  0  0  0  0  0  0  0
   -0.5557    0.0607    3.8428 C   0  0  0  0  0  0  0  0  0  0  0  0
    0.8589    0.0412    3.8241 C   0  0  0  0  0  0  0  0  0  0  0  0
    1.6276    0.0315    4.9894 C   0  0  0  0  0  0  0  0  0  0  0  0
    0.9542    0.0603    6.2168 C   0  0  2  0  0  0  0  0  0  0  0  0
    1.7222    0.0569    7.5157 C   0  0  0  0  0  0  0  0  0  0  0  0
   -0.4611    0.0915    6.2379 C   0  0  0  0  0  0  0  0  0  0  0  0
   -1.2249    0.0887    5.0735 C   0  0  0  0  0  0  0  0  0  0  0  0
    6.1147    0.0068    0.4558 H   0  0  0  0  0  0  0  0  0  0  0  0
    5.4323    1.7509    2.1116 H   0  0  0  0  0  0  0  0  0  0  0  0
    3.1126    1.7590    3.0364 H   0  0  0  0  0  0  0  0  0  0  0  0
    2.1939   -1.7673    0.7245 H   0  0  0  0  0  0  0  0  0  0  0  0
   -2.2894    0.2255   -0.2564 Au  0  0  0  0  0  0  0  0  0  0  0  0
    2.7179   -0.0013    4.9513 H   0  0  0  0  0  0  0  0  0  0  0  0
    2.8078    0.0152    7.3443 H   0  0  0  0  0  0  0  0  0  0  0  0
    1.4468   -0.8084    8.1414 H   0  0  0  0  0  0  0  0  0  0  0  0
    1.5097    0.9620    8.1093 H   0  0  0  0  0  0  0  0  0  0  0  0
   -0.9675    0.1140    7.2067 H   0  0  0  0  0  0  0  0  0  0  0  0
   -2.3158    0.1033    5.1054 H   0  0  0  0  0  0  0  0  0  0  0  0
  1  2  1  0  0  0  0
  2  3  2  0  0  0  0
  2  7  1  0  0  0  0
  3  4  1  0  0  0  0
  4 20  1  0  0  0  0
  4  5  2  0  0  0  0
  5 21  1  0  0  0  0
  6  5  1  0  0  0  0
  6  8  1  0  0  0  0
  7  6  2  0  0  0  0
  8 13  1  0  0  0  0
  9  8  1  0  0  0  0
  9 11  2  0  0  0  0
 10  9  1  0  0  0  0
 11 12  2  0  0  0  0
 12 18  1  0  0  0  0
 13 12  1  0  0  0  0
 13 14  2  0  0  0  0
 14 15  1  0  0  0  0
 15 17  1  0  0  0  0
 15 16  1  1  0  0  0
 16 27  1  0  0  0  0
 16 26  1  0  0  0  0
 17 28  1  0  0  0  0
 18 29  1  0  0  0  0
 18 17  2  0  0  0  0
 19  3  1  0  0  0  0
 22  7  1  0  0  0  0
 23 10  1  0  0  0  0
 24 14  1  0  0  0  0
 25 16  1  0  0  0  0
M  RAD  1  15   2
M  END
