314797356.xyz
 OpenBabel07262113483D
Nc1nnc(n1Cc1cccc2c1nccc2)S
 29 31  0  0  1  0  0  0  0  0999 V2000
   -1.6146    0.0642    4.8689 N   0  0  0  0  0  0  0  0  0  0  0  0
   -0.7276    0.0031    3.8172 C   0  0  0  0  0  0  0  0  0  0  0  0
    0.5814   -0.0067    3.8625 N   0  0  0  0  0  0  0  0  0  0  0  0
    1.0400    0.0000    2.5600 N   0  0  0  0  0  0  0  0  0  0  0  0
    0.0000   -0.0000    1.7610 C   0  0  0  0  0  0  0  0  0  0  0  0
   -1.1643    0.0134    2.5056 N   0  0  0  0  0  0  0  0  0  0  0  0
   -2.5353    0.1037    2.0298 C   0  0  0  0  0  0  0  0  0  0  0  0
   -3.0714   -1.1967    1.4735 C   0  0  0  0  0  0  0  0  0  0  0  0
   -3.2113   -1.3695    0.1096 C   0  0  0  0  0  0  0  0  0  0  0  0
   -3.6812   -2.5856   -0.4439 C   0  0  0  0  0  0  0  0  0  0  0  0
   -4.0128   -3.6379    0.3782 C   0  0  0  0  0  0  0  0  0  0  0  0
   -3.8914   -3.5070    1.7878 C   0  0  2  0  0  0  0  0  0  0  0  0
   -3.4175   -2.2748    2.3491 C   0  0  0  0  0  0  0  0  0  0  0  0
   -3.2952   -2.1114    3.6966 N   0  0  0  0  0  0  0  0  0  0  0  0
   -3.6107   -3.1095    4.4953 C   0  0  0  0  0  0  0  0  0  0  0  0
   -4.0826   -4.3639    4.0395 C   0  0  0  0  0  0  0  0  0  0  0  0
   -4.2225   -4.5561    2.6833 C   0  0  0  0  0  0  0  0  0  0  0  0
    0.0000    0.0000    0.0000 S   0  0  0  0  0  0  0  0  0  0  0  0
   -1.1299    0.0019    5.7594 H   0  0  0  0  0  0  0  0  0  0  0  0
   -2.3574   -0.6362    4.7641 H   0  0  0  0  0  0  0  0  0  0  0  0
   -2.5752    0.8770    1.2485 H   0  0  0  0  0  0  0  0  0  0  0  0
   -3.1416    0.4440    2.8797 H   0  0  0  0  0  0  0  0  0  0  0  0
   -2.9424   -0.5488   -0.5590 H   0  0  0  0  0  0  0  0  0  0  0  0
   -3.7719   -2.6818   -1.5279 H   0  0  0  0  0  0  0  0  0  0  0  0
   -4.3714   -4.5834   -0.0361 H   0  0  0  0  0  0  0  0  0  0  0  0
   -3.4915   -2.9359    5.5717 H   0  0  0  0  0  0  0  0  0  0  0  0
   -4.3251   -5.1494    4.7574 H   0  0  0  0  0  0  0  0  0  0  0  0
   -4.5842   -5.5064    2.2819 H   0  0  0  0  0  0  0  0  0  0  0  0
    2.2917    0.3290   -0.1780 Au  0  0  0  0  0  0  0  0  0  0  0  0
  1 19  1  0  0  0  0
  2  3  2  0  0  0  0
  2  1  1  0  0  0  0
  4  3  1  0  0  0  0
  5  6  1  0  0  0  0
  5  4  2  0  0  0  0
  6  2  1  0  0  0  0
  7  6  1  0  0  0  0
  7 22  1  0  0  0  0
  8  7  1  0  0  0  0
  8 13  1  0  0  0  0
  9  8  2  0  0  0  0
 10  9  1  0  0  0  0
 10 11  2  0  0  0  0
 12 11  1  6  0  0  0
 12 13  1  0  0  0  0
 12 17  1  0  0  0  0
 13 14  2  0  0  0  0
 14 15  2  0  0  0  0
 15 26  1  0  0  0  0
 16 15  1  0  0  0  0
 16 27  1  0  0  0  0
 17 16  2  0  0  0  0
 18  5  1  0  0  0  0
 20  1  1  0  0  0  0
 21  7  1  0  0  0  0
 23  9  1  0  0  0  0
 24 10  1  0  0  0  0
 25 11  1  0  0  0  0
 28 17  1  0  0  0  0
 29 18  1  0  0  0  0
M  RAD  1  12   2
M  END
