314706895.xyz
 OpenBabel07262113483D
Fc1c(F)c(F)c(c(c1n1c(S)n[nH]c1=O)F)F
 20 21  0  0  0  0  0  0  0  0999 V2000
   -2.2916    2.2178    1.2308 F   0  0  0  0  0  0  0  0  0  0  0  0
   -3.0337    1.1237    1.3314 C   0  0  0  0  0  0  0  0  0  0  0  0
   -4.3345    1.1274    0.8274 C   0  0  0  0  0  0  0  0  0  0  0  0
   -4.8281    2.2132    0.2437 F   0  0  0  0  0  0  0  0  0  0  0  0
   -5.1285   -0.0156    0.9584 C   0  0  0  0  0  0  0  0  0  0  0  0
   -6.3682   -0.0137    0.4903 F   0  0  0  0  0  0  0  0  0  0  0  0
   -4.6198   -1.1629    1.5742 C   0  0  0  0  0  0  0  0  0  0  0  0
   -3.3104   -1.1639    2.0561 C   0  0  0  0  0  0  0  0  0  0  0  0
   -2.5054   -0.0243    1.9360 C   0  0  0  0  0  0  0  0  0  0  0  0
   -1.2010   -0.0254    2.4555 N   0  0  0  0  0  0  0  0  0  0  0  0
   -0.0000    0.0000    1.7555 C   0  0  0  0  0  0  0  0  0  0  0  0
    0.0000    0.0000    0.0000 S   0  0  0  0  0  0  0  0  0  0  0  0
    1.0166    0.0000    2.5639 N   0  0  0  0  0  0  0  0  0  0  0  0
    0.4666   -0.0276    3.8272 N   0  0  0  0  0  0  0  0  0  0  0  0
   -0.9054   -0.0484    3.8476 C   0  0  0  0  0  0  0  0  0  0  0  0
   -1.6907   -0.0715    4.7648 O   0  0  0  0  0  0  0  0  0  0  0  0
   -2.8247   -2.2575    2.6236 F   0  0  0  0  0  0  0  0  0  0  0  0
   -5.3803   -2.2452    1.6865 F   0  0  0  0  0  0  0  0  0  0  0  0
    2.2864    0.0309   -0.3281 Au  0  0  0  0  0  0  0  0  0  0  0  0
    1.0609   -0.0370    4.6453 H   0  0  0  0  0  0  0  0  0  0  0  0
  1  2  1  0  0  0  0
  2  9  2  0  0  0  0
  3  5  2  0  0  0  0
  3  2  1  0  0  0  0
  4  3  1  0  0  0  0
  5  7  1  0  0  0  0
  6  5  1  0  0  0  0
  7 18  1  0  0  0  0
  7  8  2  0  0  0  0
  8 17  1  0  0  0  0
  9  8  1  0  0  0  0
  9 10  1  0  0  0  0
 10 15  1  0  0  0  0
 11 10  1  0  0  0  0
 11 13  2  0  0  0  0
 12 11  1  0  0  0  0
 13 14  1  0  0  0  0
 14 15  1  0  0  0  0
 14 20  1  0  0  0  0
 15 16  2  0  0  0  0
 19 12  1  0  0  0  0
M  END
