314890065.xyz
 OpenBabel07262113493D
C=CCn1c(S)nc2c1c1ccccc1nc2
 28 30  0  0  0  0  0  0  0  0999 V2000
   -4.3663   -1.7040    2.0039 C   0  0  0  0  0  0  0  0  0  0  0  0
   -3.1127   -1.3759    1.6881 C   0  0  0  0  0  0  0  0  0  0  0  0
   -2.5225   -0.0017    1.8542 C   0  0  0  0  0  0  0  0  0  0  0  0
   -1.1987   -0.0159    2.4653 N   0  0  0  0  0  0  0  0  0  0  0  0
    0.0000   -0.0000    1.7626 C   0  0  0  0  0  0  0  0  0  0  0  0
    0.0000    0.0000    0.0000 S   0  0  0  0  0  0  0  0  0  0  0  0
    1.0522    0.0000    2.5493 N   0  0  0  0  0  0  0  0  0  0  0  0
    0.5448   -0.0236    3.8317 C   0  0  0  0  0  0  0  0  0  0  0  0
   -0.8598   -0.0523    3.8123 C   0  0  0  0  0  0  0  0  0  0  0  0
   -1.6025   -0.0951    5.0258 C   0  0  0  0  0  0  0  0  0  0  0  0
   -3.0137   -0.1723    5.1597 C   0  0  0  0  0  0  0  0  0  0  0  0
   -3.6045   -0.1978    6.4084 C   0  0  0  0  0  0  0  0  0  0  0  0
   -2.8142   -0.1518    7.5789 C   0  0  0  0  0  0  0  0  0  0  0  0
   -1.4389   -0.0925    7.4805 C   0  0  0  0  0  0  0  0  0  0  0  0
   -0.7901   -0.0677    6.2186 C   0  0  0  0  0  0  0  0  0  0  0  0
    0.5791   -0.0243    6.2154 N   0  0  0  0  0  0  0  0  0  0  0  0
    1.2243   -0.0090    5.0751 C   0  0  0  0  0  0  0  0  0  0  0  0
   -4.7523   -2.7120    1.8335 H   0  0  0  0  0  0  0  0  0  0  0  0
   -5.0596   -0.9763    2.4388 H   0  0  0  0  0  0  0  0  0  0  0  0
   -2.4379   -2.1211    1.2515 H   0  0  0  0  0  0  0  0  0  0  0  0
   -2.4019    0.4733    0.8661 H   0  0  0  0  0  0  0  0  0  0  0  0
   -3.1818    0.6529    2.4413 H   0  0  0  0  0  0  0  0  0  0  0  0
    2.2794    0.3037   -0.2632 Au  0  0  0  0  0  0  0  0  0  0  0  0
   -3.6414   -0.2367    4.2741 H   0  0  0  0  0  0  0  0  0  0  0  0
   -4.6921   -0.2619    6.4896 H   0  0  0  0  0  0  0  0  0  0  0  0
   -3.2943   -0.1717    8.5600 H   0  0  0  0  0  0  0  0  0  0  0  0
   -0.7979   -0.0666    8.3633 H   0  0  0  0  0  0  0  0  0  0  0  0
    2.3204    0.0201    5.0945 H   0  0  0  0  0  0  0  0  0  0  0  0
  1 19  1  0  0  0  0
  2  3  1  0  0  0  0
  2  1  2  0  0  0  0
  3 22  1  0  0  0  0
  3  4  1  0  0  0  0
  4  9  1  0  0  0  0
  5  4  1  0  0  0  0
  5  7  2  0  0  0  0
  6  5  1  0  0  0  0
  7  8  2  0  0  0  0
  8 17  1  0  0  0  0
  9  8  1  0  0  0  0
  9 10  2  0  0  0  0
 10 11  1  0  0  0  0
 10 15  1  0  0  0  0
 11 12  2  0  0  0  0
 12 25  1  0  0  0  0
 12 13  1  0  0  0  0
 13 26  1  0  0  0  0
 14 13  2  0  0  0  0
 14 27  1  0  0  0  0
 15 14  1  0  0  0  0
 16 15  2  0  0  0  0
 17 28  1  0  0  0  0
 17 16  2  0  0  0  0
 18  1  1  0  0  0  0
 20  2  1  0  0  0  0
 21  3  1  0  0  0  0
 23  6  1  0  0  0  0
 24 11  1  0  0  0  0
M  END
