314820574.xyz
 OpenBabel07262113483D
CC(n1c(nnc1S)Cc1ccncc1)C
 30 31  0  0  0  0  0  0  0  0999 V2000
   -2.9228   -1.1830    1.3251 C   0  0  0  0  0  0  0  0  0  0  0  0
   -2.5438    0.0481    2.1483 C   0  0  0  0  0  0  0  0  0  0  0  0
   -1.1276    0.0087    2.5496 N   0  0  0  0  0  0  0  0  0  0  0  0
   -0.6378    0.0194    3.8440 C   0  0  0  0  0  0  0  0  0  0  0  0
    0.6724    0.0180    3.8283 N   0  0  0  0  0  0  0  0  0  0  0  0
    1.0784    0.0000    2.5245 N   0  0  0  0  0  0  0  0  0  0  0  0
   -0.0000    0.0000    1.7599 C   0  0  0  0  0  0  0  0  0  0  0  0
    0.0000    0.0000    0.0000 S   0  0  0  0  0  0  0  0  0  0  0  0
   -1.4800    0.1190    5.0739 C   0  0  0  0  0  0  0  0  0  0  0  0
   -2.2093    1.4451    5.1804 C   0  0  0  0  0  0  0  0  0  0  0  0
   -1.5415    2.6516    4.9329 C   0  0  0  0  0  0  0  0  0  0  0  0
   -2.2527    3.8499    5.0215 C   0  0  0  0  0  0  0  0  0  0  0  0
   -3.5521    3.9193    5.3280 N   0  0  0  0  0  0  0  0  0  0  0  0
   -4.1868    2.7709    5.5673 C   0  0  0  0  0  0  0  0  0  0  0  0
   -3.5670    1.5183    5.5069 C   0  0  0  0  0  0  0  0  0  0  0  0
   -2.8795    1.3739    1.4652 C   0  0  0  0  0  0  0  0  0  0  0  0
   -4.0038   -1.1740    1.1193 H   0  0  0  0  0  0  0  0  0  0  0  0
   -2.6789   -2.1073    1.8701 H   0  0  0  0  0  0  0  0  0  0  0  0
   -2.3903   -1.2037    0.3626 H   0  0  0  0  0  0  0  0  0  0  0  0
   -3.1035    0.0073    3.0923 H   0  0  0  0  0  0  0  0  0  0  0  0
    2.3186    0.0093   -0.1874 Au  0  0  0  0  0  0  0  0  0  0  0  0
   -0.7837    0.0060    5.9190 H   0  0  0  0  0  0  0  0  0  0  0  0
   -2.2019   -0.7109    5.1374 H   0  0  0  0  0  0  0  0  0  0  0  0
   -0.4815    2.6511    4.6677 H   0  0  0  0  0  0  0  0  0  0  0  0
   -1.7444    4.8021    4.8299 H   0  0  0  0  0  0  0  0  0  0  0  0
   -5.2520    2.8420    5.8179 H   0  0  0  0  0  0  0  0  0  0  0  0
   -4.1428    0.6110    5.7082 H   0  0  0  0  0  0  0  0  0  0  0  0
   -3.9541    1.4140    1.2318 H   0  0  0  0  0  0  0  0  0  0  0  0
   -2.6363    2.2193    2.1253 H   0  0  0  0  0  0  0  0  0  0  0  0
   -2.3166    1.4900    0.5267 H   0  0  0  0  0  0  0  0  0  0  0  0
  1 18  1  0  0  0  0
  1  2  1  0  0  0  0
  2  3  1  0  0  0  0
  2 20  1  0  0  0  0
  3  4  1  0  0  0  0
  4  9  1  0  0  0  0
  5  4  2  0  0  0  0
  6  5  1  0  0  0  0
  7  6  2  0  0  0  0
  7  3  1  0  0  0  0
  8  7  1  0  0  0  0
  9 23  1  0  0  0  0
  9 10  1  0  0  0  0
  9 22  1  0  0  0  0
 10 15  1  0  0  0  0
 11 12  1  0  0  0  0
 11 10  2  0  0  0  0
 12 13  2  0  0  0  0
 13 14  2  0  0  0  0
 14 26  1  0  0  0  0
 15 14  1  0  0  0  0
 15 27  1  0  0  0  0
 16 29  1  0  0  0  0
 16  2  1  0  0  0  0
 17  1  1  0  0  0  0
 19  1  1  0  0  0  0
 21  8  1  0  0  0  0
 24 11  1  0  0  0  0
 25 12  1  0  0  0  0
 28 16  1  0  0  0  0
 30 16  1  0  0  0  0
M  RAD  1  15   2
M  END
