314863200.xyz
 OpenBabel07262113483D
CC(Cn1c(S)nnc1c1cncc(c1)Br)C
 30 31  0  0  1  0  0  0  0  0999 V2000
    2.2349    2.6592    1.6938 C   0  0  0  0  0  0  0  0  0  0  0  0
    3.1103    1.5396    2.2614 C   0  0  0  0  0  0  0  0  0  0  0  0
    2.5008    0.1567    1.9893 C   0  0  0  0  0  0  0  0  0  0  0  0
    1.1468    0.0000    2.5119 N   0  0  0  0  0  0  0  0  0  0  0  0
    0.0000    0.0000    1.7561 C   0  0  0  0  0  0  0  0  0  0  0  0
    0.0000    0.0000    0.0000 S   0  0  0  0  0  0  0  0  0  0  0  0
   -1.0626    0.0061    2.5442 N   0  0  0  0  0  0  0  0  0  0  0  0
   -0.6253    0.0239    3.8295 N   0  0  0  0  0  0  0  0  0  0  0  0
    0.6923    0.0237    3.8256 C   0  0  0  0  0  0  0  0  0  0  0  0
    1.4934    0.0744    5.0518 C   0  0  1  0  0  0  0  0  0  0  0  0
    0.9013    0.6174    6.2134 C   0  0  0  0  0  0  0  0  0  0  0  0
    1.5254    0.7032    7.3835 N   0  0  0  0  0  0  0  0  0  0  0  0
    2.7809    0.2636    7.4850 C   0  0  0  0  0  0  0  0  0  0  0  0
    3.4524   -0.2973    6.3949 C   0  0  0  0  0  0  0  0  0  0  0  0
    2.8063   -0.4058    5.1648 C   0  0  0  0  0  0  0  0  0  0  0  0
    5.2404   -0.9167    6.5885 Br  0  0  0  0  0  0  0  0  0  0  0  0
    4.5340    1.5802    1.7014 C   0  0  0  0  0  0  0  0  0  0  0  0
    2.1156    2.5543    0.6029 H   0  0  0  0  0  0  0  0  0  0  0  0
    1.2288    2.6552    2.1398 H   0  0  0  0  0  0  0  0  0  0  0  0
    2.6859    3.6429    1.8955 H   0  0  0  0  0  0  0  0  0  0  0  0
    3.1708    1.6696    3.3559 H   0  0  0  0  0  0  0  0  0  0  0  0
    2.4416   -0.0143    0.9042 H   0  0  0  0  0  0  0  0  0  0  0  0
    3.1424   -0.6405    2.3896 H   0  0  0  0  0  0  0  0  0  0  0  0
   -2.3139   -0.0290   -0.2040 Au  0  0  0  0  0  0  0  0  0  0  0  0
   -0.1261    0.9874    6.1562 H   0  0  0  0  0  0  0  0  0  0  0  0
    3.2767    0.3538    8.4568 H   0  0  0  0  0  0  0  0  0  0  0  0
    3.3226   -0.8735    4.3295 H   0  0  0  0  0  0  0  0  0  0  0  0
    5.0114    2.5481    1.9166 H   0  0  0  0  0  0  0  0  0  0  0  0
    4.5324    1.4446    0.6066 H   0  0  0  0  0  0  0  0  0  0  0  0
    5.1653    0.7902    2.1394 H   0  0  0  0  0  0  0  0  0  0  0  0
  1 20  1  0  0  0  0
  1 19  1  0  0  0  0
  1  2  1  0  0  0  0
  2 21  1  0  0  0  0
  3  2  1  0  0  0  0
  3 23  1  0  0  0  0
  3  4  1  0  0  0  0
  4  9  1  0  0  0  0
  5  4  1  0  0  0  0
  5  7  2  0  0  0  0
  6  5  1  0  0  0  0
  7  8  1  0  0  0  0
  9  8  2  0  0  0  0
 10  9  1  1  0  0  0
 10 15  1  0  0  0  0
 10 11  1  0  0  0  0
 11 12  2  0  0  0  0
 12 13  2  0  0  0  0
 13 26  1  0  0  0  0
 14 16  1  0  0  0  0
 14 13  1  0  0  0  0
 15 14  2  0  0  0  0
 17 28  1  0  0  0  0
 17 30  1  0  0  0  0
 17  2  1  0  0  0  0
 18  1  1  0  0  0  0
 22  3  1  0  0  0  0
 24  6  1  0  0  0  0
 25 11  1  0  0  0  0
 27 15  1  0  0  0  0
 29 17  1  0  0  0  0
M  RAD  1  10   2
M  END
