314977839.xyz
 OpenBabel07262113493D
Cn1ccc(n1)Cn1c(S)nc2c(c1=O)ccs2
 28 30  0  0  1  0  0  0  0  0999 V2000
    3.5191   -3.6778   -1.3260 C   0  0  0  0  0  0  0  0  0  0  0  0
    3.4033   -2.9672   -0.0718 N   0  0  0  0  0  0  0  0  0  0  0  0
    3.7006   -3.4177    1.1805 C   0  0  0  0  0  0  0  0  0  0  0  0
    3.4275   -2.3793    2.0537 C   0  0  0  0  0  0  0  0  0  0  0  0
    2.9597   -1.3333    1.2165 C   0  0  0  0  0  0  0  0  0  0  0  0
    2.9514   -1.7066   -0.0640 N   0  0  0  0  0  0  0  0  0  0  0  0
    2.4904    0.0307    1.6189 C   0  0  0  0  0  0  0  0  0  0  0  0
    1.2324    0.0000    2.3898 N   0  0  0  0  0  0  0  0  0  0  0  0
   -0.0000   -0.0000    1.7753 C   0  0  0  0  0  0  0  0  0  0  0  0
    0.0000    0.0000    0.0000 S   0  0  0  0  0  0  0  0  0  0  0  0
   -1.1333   -0.0116    2.4328 N   0  0  0  0  0  0  0  0  0  0  0  0
   -1.0488   -0.0405    3.7789 C   0  0  0  0  0  0  0  0  0  0  0  0
    0.1319   -0.0816    4.5203 C   0  0  2  0  0  0  0  0  0  0  0  0
    1.3896   -0.0850    3.8114 C   0  0  0  0  0  0  0  0  0  0  0  0
    2.5049   -0.1468    4.3030 O   0  0  0  0  0  0  0  0  0  0  0  0
   -0.0916   -0.1230    5.9328 C   0  0  0  0  0  0  0  0  0  0  0  0
   -1.4226   -0.1081    6.2412 C   0  0  0  0  0  0  0  0  0  0  0  0
   -2.4478   -0.0488    4.8246 S   0  0  0  0  0  0  0  0  0  0  0  0
    4.2187   -3.1572   -1.9970 H   0  0  0  0  0  0  0  0  0  0  0  0
    2.5374   -3.7397   -1.8191 H   0  0  0  0  0  0  0  0  0  0  0  0
    3.8914   -4.6921   -1.1312 H   0  0  0  0  0  0  0  0  0  0  0  0
    4.0812   -4.4230    1.3479 H   0  0  0  0  0  0  0  0  0  0  0  0
    3.5420   -2.3506    3.1336 H   0  0  0  0  0  0  0  0  0  0  0  0
    3.2276    0.5067    2.2759 H   0  0  0  0  0  0  0  0  0  0  0  0
    2.3402    0.6487    0.7245 H   0  0  0  0  0  0  0  0  0  0  0  0
   -2.2759    0.2656   -0.3244 Au  0  0  0  0  0  0  0  0  0  0  0  0
    0.7141   -0.1592    6.6655 H   0  0  0  0  0  0  0  0  0  0  0  0
   -1.8802   -0.1285    7.2289 H   0  0  0  0  0  0  0  0  0  0  0  0
  1 21  1  0  0  0  0
  1  2  1  0  0  0  0
  2  6  1  0  0  0  0
  2  3  1  0  0  0  0
  3 22  1  0  0  0  0
  3  4  2  0  0  0  0
  4 23  1  0  0  0  0
  5  7  1  0  0  0  0
  5  4  1  0  0  0  0
  6  5  2  0  0  0  0
  7 24  1  0  0  0  0
  7  8  1  0  0  0  0
  8 14  1  0  0  0  0
  9  8  1  0  0  0  0
  9 11  2  0  0  0  0
 10  9  1  0  0  0  0
 11 12  2  0  0  0  0
 12 18  1  0  0  0  0
 13 12  1  6  0  0  0
 13 16  1  0  0  0  0
 14 15  2  0  0  0  0
 14 13  1  0  0  0  0
 16 17  2  0  0  0  0
 16 27  1  0  0  0  0
 17 28  1  0  0  0  0
 18 17  1  0  0  0  0
 19  1  1  0  0  0  0
 20  1  1  0  0  0  0
 25  7  1  0  0  0  0
 26 10  1  0  0  0  0
M  RAD  1  13   2
M  END
