314946907.xyz
 OpenBabel07262113493D
Cc1ccc2c(n1)n(CCc1nccs1)c(n2)S
 30 32  0  0  0  0  0  0  0  0999 V2000
   -2.0635    0.1108    7.2130 C   0  0  0  0  0  0  0  0  0  0  0  0
   -1.1315    0.0777    6.0308 C   0  0  0  0  0  0  0  0  0  0  0  0
    0.2711    0.0590    6.1989 C   0  0  0  0  0  0  0  0  0  0  0  0
    1.1370    0.0294    5.1000 C   0  0  0  0  0  0  0  0  0  0  0  0
    0.5475    0.0193    3.8350 C   0  0  0  0  0  0  0  0  0  0  0  0
   -0.8717    0.0355    3.7933 C   0  0  0  0  0  0  0  0  0  0  0  0
   -1.7062    0.0672    4.8142 N   0  0  0  0  0  0  0  0  0  0  0  0
   -1.2013    0.0084    2.4450 N   0  0  0  0  0  0  0  0  0  0  0  0
   -2.5477    0.0648    1.9100 C   0  0  0  0  0  0  0  0  0  0  0  0
   -2.9829    1.5033    1.6044 C   0  0  0  0  0  0  0  0  0  0  0  0
   -4.3566    1.5424    1.0065 C   0  0  0  0  0  0  0  0  0  0  0  0
   -4.8291    0.6407    0.1943 N   0  0  0  0  0  0  0  0  0  0  0  0
   -6.1020    0.9438   -0.2163 C   0  0  0  0  0  0  0  0  0  0  0  0
   -6.6270    2.1038    0.2889 C   0  0  0  0  0  0  0  0  0  0  0  0
   -5.4734    2.8556    1.3382 S   0  0  0  0  0  0  0  0  0  0  0  0
    0.0000    0.0000    1.7580 C   0  0  0  0  0  0  0  0  0  0  0  0
    1.0555    0.0000    2.5492 N   0  0  0  0  0  0  0  0  0  0  0  0
    0.0000    0.0000    0.0000 S   0  0  0  0  0  0  0  0  0  0  0  0
   -2.7257   -0.7702    7.2043 H   0  0  0  0  0  0  0  0  0  0  0  0
   -2.7147    0.9985    7.1635 H   0  0  0  0  0  0  0  0  0  0  0  0
   -1.5168    0.1289    8.1661 H   0  0  0  0  0  0  0  0  0  0  0  0
    0.6799    0.0697    7.2112 H   0  0  0  0  0  0  0  0  0  0  0  0
    2.2218    0.0165    5.2231 H   0  0  0  0  0  0  0  0  0  0  0  0
   -3.2130   -0.3787    2.6635 H   0  0  0  0  0  0  0  0  0  0  0  0
   -2.6056   -0.5461    0.9991 H   0  0  0  0  0  0  0  0  0  0  0  0
   -2.9463    2.1049    2.5250 H   0  0  0  0  0  0  0  0  0  0  0  0
   -2.2640    1.9500    0.8948 H   0  0  0  0  0  0  0  0  0  0  0  0
   -6.6236    0.2722   -0.9003 H   0  0  0  0  0  0  0  0  0  0  0  0
   -7.6067    2.5417    0.1087 H   0  0  0  0  0  0  0  0  0  0  0  0
    2.3010   -0.0885   -0.2509 Au  0  0  0  0  0  0  0  0  0  0  0  0
  1 21  1  0  0  0  0
  2  3  1  0  0  0  0
  2  1  1  0  0  0  0
  3 22  1  0  0  0  0
  4 23  1  0  0  0  0
  4  3  2  0  0  0  0
  5  4  1  0  0  0  0
  6  5  1  0  0  0  0
  6  7  2  0  0  0  0
  7  2  2  0  0  0  0
  8  6  1  0  0  0  0
  9  8  1  0  0  0  0
  9 24  1  0  0  0  0
 10  9  1  0  0  0  0
 10 26  1  0  0  0  0
 11 15  1  0  0  0  0
 11 10  1  0  0  0  0
 12 11  2  0  0  0  0
 13 12  2  0  0  0  0
 13 14  1  0  0  0  0
 14 15  1  0  0  0  0
 16  8  1  0  0  0  0
 16 17  2  0  0  0  0
 17  5  2  0  0  0  0
 18 16  1  0  0  0  0
 19  1  1  0  0  0  0
 20  1  1  0  0  0  0
 25  9  1  0  0  0  0
 27 10  1  0  0  0  0
 28 13  1  0  0  0  0
 29 14  1  0  0  0  0
 30 18  1  0  0  0  0
M  RAD  1  14   2
M  END
