314919983.xyz
 OpenBabel07262113493D
Brc1ccc2c(c1)n(CCc1ccco1)c(n2)S
 29 31  0  0  1  0  0  0  0  0999 V2000
    1.9818   -0.1431    7.7869 Br  0  0  0  0  0  0  0  0  0  0  0  0
    0.9757   -0.0924    6.1647 C   0  0  2  0  0  0  0  0  0  0  0  0
   -0.4304   -0.0778    6.2390 C   0  0  0  0  0  0  0  0  0  0  0  0
   -1.2014   -0.0464    5.0770 C   0  0  0  0  0  0  0  0  0  0  0  0
   -0.5461   -0.0300    3.8393 C   0  0  0  0  0  0  0  0  0  0  0  0
    0.8733   -0.0385    3.7999 C   0  0  0  0  0  0  0  0  0  0  0  0
    1.6637   -0.0739    4.9497 C   0  0  0  0  0  0  0  0  0  0  0  0
    1.2008   -0.0000    2.4512 N   0  0  0  0  0  0  0  0  0  0  0  0
    2.5346   -0.0712    1.8890 C   0  0  0  0  0  0  0  0  0  0  0  0
    2.9874   -1.5175    1.6219 C   0  0  0  0  0  0  0  0  0  0  0  0
    4.3862   -1.5867    1.1214 C   0  0  0  0  0  0  0  0  0  0  0  0
    4.9523   -1.9801   -0.0604 C   0  0  0  0  0  0  0  0  0  0  0  0
    6.3679   -1.7751    0.0762 C   0  0  0  0  0  0  0  0  0  0  0  0
    6.5553   -1.2666    1.3283 C   0  0  0  0  0  0  0  0  0  0  0  0
    5.3619   -1.1467    1.9694 O   0  0  0  0  0  0  0  0  0  0  0  0
    0.0000    0.0000    1.7603 C   0  0  0  0  0  0  0  0  0  0  0  0
   -1.0513   -0.0082    2.5507 N   0  0  0  0  0  0  0  0  0  0  0  0
    0.0000    0.0000    0.0000 S   0  0  0  0  0  0  0  0  0  0  0  0
   -0.9116   -0.0939    7.2175 H   0  0  0  0  0  0  0  0  0  0  0  0
   -2.2916   -0.0370    5.1250 H   0  0  0  0  0  0  0  0  0  0  0  0
    2.7531   -0.0911    4.9159 H   0  0  0  0  0  0  0  0  0  0  0  0
    3.2279    0.4166    2.5890 H   0  0  0  0  0  0  0  0  0  0  0  0
    2.5526    0.5107    0.9551 H   0  0  0  0  0  0  0  0  0  0  0  0
    2.8877   -2.0948    2.5572 H   0  0  0  0  0  0  0  0  0  0  0  0
    2.3197   -1.9770    0.8787 H   0  0  0  0  0  0  0  0  0  0  0  0
    4.4211   -2.3733   -0.9243 H   0  0  0  0  0  0  0  0  0  0  0  0
    7.1396   -1.9810   -0.6622 H   0  0  0  0  0  0  0  0  0  0  0  0
    7.4334   -0.9555    1.8875 H   0  0  0  0  0  0  0  0  0  0  0  0
   -2.2979    0.1225   -0.2545 Au  0  0  0  0  0  0  0  0  0  0  0  0
  2  3  1  0  0  0  0
  2  1  1  6  0  0  0
  3 19  1  0  0  0  0
  4 20  1  0  0  0  0
  4  3  2  0  0  0  0
  5  4  1  0  0  0  0
  6  5  1  0  0  0  0
  6  7  2  0  0  0  0
  7  2  1  0  0  0  0
  8  6  1  0  0  0  0
  9  8  1  0  0  0  0
  9 22  1  0  0  0  0
 10  9  1  0  0  0  0
 10 24  1  0  0  0  0
 11 10  1  0  0  0  0
 11 15  1  0  0  0  0
 12 13  1  0  0  0  0
 12 11  2  0  0  0  0
 13 14  2  0  0  0  0
 14 28  1  0  0  0  0
 14 15  1  0  0  0  0
 16  8  1  0  0  0  0
 16 17  2  0  0  0  0
 17  5  2  0  0  0  0
 18 16  1  0  0  0  0
 21  7  1  0  0  0  0
 23  9  1  0  0  0  0
 25 10  1  0  0  0  0
 26 12  1  0  0  0  0
 27 13  1  0  0  0  0
 29 18  1  0  0  0  0
M  RAD  1   2   2
M  END
