314912362.xyz
 OpenBabel07262113493D
Cc1noc(n1)Cn1c(S)nc2c1n(C)nc2C
 30 32  0  0  1  0  0  0  0  0999 V2000
    4.4558   -4.4262    0.5618 C   0  0  0  0  0  0  0  0  0  0  0  0
    3.9273   -3.2949    1.3712 C   0  0  0  0  0  0  0  0  0  0  0  0
    3.8093   -3.3471    2.6747 N   0  0  0  0  0  0  0  0  0  0  0  0
    3.2826   -2.0985    3.0073 O   0  0  0  0  0  0  0  0  0  0  0  0
    3.1325   -1.4202    1.8593 C   0  0  0  0  0  0  0  0  0  0  0  0
    3.5109   -2.0962    0.8213 N   0  0  0  0  0  0  0  0  0  0  0  0
    2.5651   -0.0355    1.9240 C   0  0  0  0  0  0  0  0  0  0  0  0
    1.2265    0.0000    2.4736 N   0  0  0  0  0  0  0  0  0  0  0  0
   -0.0000    0.0000    1.7350 C   0  0  0  0  0  0  0  0  0  0  0  0
    0.0000    0.0000    0.0000 S   0  0  0  0  0  0  0  0  0  0  0  0
   -1.0582   -0.0047    2.5260 N   0  0  0  0  0  0  0  0  0  0  0  0
   -0.5627   -0.0217    3.7979 C   0  0  0  0  0  0  0  0  0  0  0  0
    0.8364   -0.0244    3.7821 C   0  0  1  0  0  0  0  0  0  0  0  0
    1.2849   -0.0630    5.0542 N   0  0  0  0  0  0  0  0  0  0  0  0
    2.6277   -0.0172    5.5839 C   0  0  0  0  0  0  0  0  0  0  0  0
    0.2052   -0.0608    5.9119 N   0  0  0  0  0  0  0  0  0  0  0  0
   -0.9079   -0.0459    5.1891 C   0  0  0  0  0  0  0  0  0  0  0  0
   -2.2574   -0.0586    5.8261 C   0  0  0  0  0  0  0  0  0  0  0  0
    3.6982   -4.7529   -0.1669 H   0  0  0  0  0  0  0  0  0  0  0  0
    4.7244   -5.2685    1.2118 H   0  0  0  0  0  0  0  0  0  0  0  0
    5.3417   -4.1030   -0.0059 H   0  0  0  0  0  0  0  0  0  0  0  0
    3.2210    0.6094    2.5300 H   0  0  0  0  0  0  0  0  0  0  0  0
    2.5306    0.3549    0.8998 H   0  0  0  0  0  0  0  0  0  0  0  0
    0.0103    2.2635   -0.5288 Au  0  0  0  0  0  0  0  0  0  0  0  0
    2.5880   -0.3984    6.6117 H   0  0  0  0  0  0  0  0  0  0  0  0
    3.0261    1.0119    5.6029 H   0  0  0  0  0  0  0  0  0  0  0  0
    3.2883   -0.6617    4.9877 H   0  0  0  0  0  0  0  0  0  0  0  0
   -2.8427    0.8259    5.5271 H   0  0  0  0  0  0  0  0  0  0  0  0
   -2.1574   -0.0666    6.9198 H   0  0  0  0  0  0  0  0  0  0  0  0
   -2.8314   -0.9463    5.5144 H   0  0  0  0  0  0  0  0  0  0  0  0
  1 20  1  0  0  0  0
  1  2  1  0  0  0  0
  2  3  2  0  0  0  0
  3  4  1  0  0  0  0
  5  7  1  0  0  0  0
  5  4  1  0  0  0  0
  6  2  2  0  0  0  0
  6  5  2  0  0  0  0
  7  8  1  0  0  0  0
  7 22  1  0  0  0  0
  8 13  1  0  0  0  0
  9  8  1  0  0  0  0
  9 11  2  0  0  0  0
 10  9  1  0  0  0  0
 11 12  2  0  0  0  0
 12 17  1  0  0  0  0
 13 12  1  6  0  0  0
 13 14  1  0  0  0  0
 14 15  1  0  0  0  0
 14 16  1  0  0  0  0
 15 26  1  0  0  0  0
 15 25  1  0  0  0  0
 17 18  1  0  0  0  0
 17 16  2  0  0  0  0
 18 29  1  0  0  0  0
 19  1  1  0  0  0  0
 21  1  1  0  0  0  0
 23  7  1  0  0  0  0
 24 10  1  0  0  0  0
 27 15  1  0  0  0  0
 28 18  1  0  0  0  0
 30 18  1  0  0  0  0
M  RAD  1  13   2
M  END
