315006525.xyz
 OpenBabel07262113493D
CC(n1c(S)nnc1c1cc2c(s1)CCCC2)C
 35 37  0  0  0  0  0  0  0  0999 V2000
   -3.1555   -1.2847    1.7876 C   0  0  0  0  0  0  0  0  0  0  0  0
   -2.5078    0.0914    1.9435 C   0  0  0  0  0  0  0  0  0  0  0  0
   -1.1494   -0.0154    2.5104 N   0  0  0  0  0  0  0  0  0  0  0  0
    0.0000   -0.0000    1.7589 C   0  0  0  0  0  0  0  0  0  0  0  0
    0.0000    0.0000    0.0000 S   0  0  0  0  0  0  0  0  0  0  0  0
    1.0613    0.0000    2.5450 N   0  0  0  0  0  0  0  0  0  0  0  0
    0.6242   -0.0286    3.8336 N   0  0  0  0  0  0  0  0  0  0  0  0
   -0.6940   -0.0468    3.8255 C   0  0  0  0  0  0  0  0  0  0  0  0
   -1.4931   -0.0652    5.0453 C   0  0  0  0  0  0  0  0  0  0  0  0
   -1.2875    0.7329    6.1462 C   0  0  0  0  0  0  0  0  0  0  0  0
   -2.1416    0.4230    7.2503 C   0  0  0  0  0  0  0  0  0  0  0  0
   -2.9864   -0.6309    6.9814 C   0  0  0  0  0  0  0  0  0  0  0  0
   -2.7333   -1.2596    5.3796 S   0  0  0  0  0  0  0  0  0  0  0  0
   -4.0220   -1.1769    7.9222 C   0  0  0  0  0  0  0  0  0  0  0  0
   -3.7432   -0.6883    9.3519 C   0  0  0  0  0  0  0  0  0  0  0  0
   -3.4276    0.8113    9.3771 C   0  0  0  0  0  0  0  0  0  0  0  0
   -2.1534    1.1288    8.5828 C   0  0  0  0  0  0  0  0  0  0  0  0
   -3.3754    1.1030    2.6916 C   0  0  0  0  0  0  0  0  0  0  0  0
   -3.3478   -1.7502    2.7649 H   0  0  0  0  0  0  0  0  0  0  0  0
   -4.1173   -1.1886    1.2606 H   0  0  0  0  0  0  0  0  0  0  0  0
   -2.5061   -1.9514    1.2011 H   0  0  0  0  0  0  0  0  0  0  0  0
   -2.3364    0.4968    0.9339 H   0  0  0  0  0  0  0  0  0  0  0  0
    2.3072    0.1908   -0.1930 Au  0  0  0  0  0  0  0  0  0  0  0  0
   -0.5357    1.5228    6.1513 H   0  0  0  0  0  0  0  0  0  0  0  0
   -5.0276   -0.8439    7.6037 H   0  0  0  0  0  0  0  0  0  0  0  0
   -4.0410   -2.2787    7.8875 H   0  0  0  0  0  0  0  0  0  0  0  0
   -2.8847   -1.2463    9.7653 H   0  0  0  0  0  0  0  0  0  0  0  0
   -4.6085   -0.9135    9.9952 H   0  0  0  0  0  0  0  0  0  0  0  0
   -3.3211    1.1639   10.4152 H   0  0  0  0  0  0  0  0  0  0  0  0
   -4.2782    1.3650    8.9407 H   0  0  0  0  0  0  0  0  0  0  0  0
   -2.0509    2.2167    8.4346 H   0  0  0  0  0  0  0  0  0  0  0  0
   -1.2651    0.8186    9.1638 H   0  0  0  0  0  0  0  0  0  0  0  0
   -2.8426    2.0569    2.8179 H   0  0  0  0  0  0  0  0  0  0  0  0
   -3.6789    0.7395    3.6816 H   0  0  0  0  0  0  0  0  0  0  0  0
   -4.2870    1.2922    2.1046 H   0  0  0  0  0  0  0  0  0  0  0  0
  1  2  1  0  0  0  0
  1 19  1  0  0  0  0
  2  3  1  0  0  0  0
  2 18  1  0  0  0  0
  3  8  1  0  0  0  0
  4  3  1  0  0  0  0
  4  6  2  0  0  0  0
  5  4  1  0  0  0  0
  6  7  1  0  0  0  0
  8  7  2  0  0  0  0
  8  9  1  0  0  0  0
  9 13  1  0  0  0  0
  9 10  2  0  0  0  0
 10 24  1  0  0  0  0
 10 11  1  0  0  0  0
 11 17  1  0  0  0  0
 12 11  2  0  0  0  0
 12 14  1  0  0  0  0
 13 12  1  0  0  0  0
 14 15  1  0  0  0  0
 15 16  1  0  0  0  0
 15 27  1  0  0  0  0
 15 28  1  0  0  0  0
 16 29  1  0  0  0  0
 17 32  1  0  0  0  0
 17 16  1  0  0  0  0
 18 33  1  0  0  0  0
 18 34  1  0  0  0  0
 20  1  1  0  0  0  0
 21  1  1  0  0  0  0
 22  2  1  0  0  0  0
 23  5  1  0  0  0  0
 25 14  1  0  0  0  0
 26 14  1  0  0  0  0
 30 16  1  0  0  0  0
 31 17  1  0  0  0  0
 35 18  1  0  0  0  0
M  END
