315032287.xyz
 OpenBabel07262113493D
CC(Cn1c(S)nnc1c1ccc(c(c1)Cl)F)C
 31 32  0  0  0  0  0  0  0  0999 V2000
    3.1385   -2.2651    3.4275 C   0  0  0  0  0  0  0  0  0  0  0  0
    2.9683   -1.6921    2.0170 C   0  0  0  0  0  0  0  0  0  0  0  0
    2.5020   -0.2227    2.0180 C   0  0  0  0  0  0  0  0  0  0  0  0
    1.1463    0.0000    2.5199 N   0  0  0  0  0  0  0  0  0  0  0  0
   -0.0000   -0.0000    1.7582 C   0  0  0  0  0  0  0  0  0  0  0  0
    0.0000    0.0000    0.0000 S   0  0  0  0  0  0  0  0  0  0  0  0
   -1.0633    0.0528    2.5404 N   0  0  0  0  0  0  0  0  0  0  0  0
   -0.6305    0.0925    3.8317 N   0  0  0  0  0  0  0  0  0  0  0  0
    0.6840    0.0683    3.8289 C   0  0  0  0  0  0  0  0  0  0  0  0
    1.5041    0.1286    5.0468 C   0  0  0  0  0  0  0  0  0  0  0  0
    2.6521    0.9303    5.1515 C   0  0  0  0  0  0  0  0  0  0  0  0
    3.3878    0.9636    6.3360 C   0  0  0  0  0  0  0  0  0  0  0  0
    2.9729    0.2088    7.4287 C   0  0  0  0  0  0  0  0  0  0  0  0
    1.8130   -0.5735    7.3515 C   0  0  0  0  0  0  0  0  0  0  0  0
    1.0838   -0.6102    6.1650 C   0  0  0  0  0  0  0  0  0  0  0  0
    1.3104   -1.4939    8.7359 Cl  0  0  0  0  0  0  0  0  0  0  0  0
    3.6796    0.2395    8.5580 F   0  0  0  0  0  0  0  0  0  0  0  0
    2.0787   -2.5967    1.1607 C   0  0  0  0  0  0  0  0  0  0  0  0
    3.5925   -3.2669    3.3782 H   0  0  0  0  0  0  0  0  0  0  0  0
    2.1687   -2.3692    3.9376 H   0  0  0  0  0  0  0  0  0  0  0  0
    3.7797   -1.6305    4.0577 H   0  0  0  0  0  0  0  0  0  0  0  0
    3.9687   -1.6537    1.5475 H   0  0  0  0  0  0  0  0  0  0  0  0
    3.1968    0.3817    2.6136 H   0  0  0  0  0  0  0  0  0  0  0  0
    2.5239    0.1767    0.9931 H   0  0  0  0  0  0  0  0  0  0  0  0
   -2.2954    0.2924   -0.2013 Au  0  0  0  0  0  0  0  0  0  0  0  0
    2.9630    1.5590    4.3168 H   0  0  0  0  0  0  0  0  0  0  0  0
    4.2807    1.5829    6.4375 H   0  0  0  0  0  0  0  0  0  0  0  0
    0.1807   -1.2168    6.1018 H   0  0  0  0  0  0  0  0  0  0  0  0
    1.9801   -2.2240    0.1306 H   0  0  0  0  0  0  0  0  0  0  0  0
    2.4969   -3.6144    1.1199 H   0  0  0  0  0  0  0  0  0  0  0  0
    1.0641   -2.6726    1.5833 H   0  0  0  0  0  0  0  0  0  0  0  0
  1 20  1  0  0  0  0
  1 21  1  0  0  0  0
  2  3  1  0  0  0  0
  2  1  1  0  0  0  0
  3  4  1  0  0  0  0
  3 23  1  0  0  0  0
  4  9  1  0  0  0  0
  5  4  1  0  0  0  0
  5  7  2  0  0  0  0
  6  5  1  0  0  0  0
  7  8  1  0  0  0  0
  9  8  2  0  0  0  0
  9 10  1  0  0  0  0
 10 11  2  0  0  0  0
 10 15  1  0  0  0  0
 11 12  1  0  0  0  0
 12 27  1  0  0  0  0
 12 13  2  0  0  0  0
 13 17  1  0  0  0  0
 14 13  1  0  0  0  0
 14 16  1  0  0  0  0
 15 14  2  0  0  0  0
 18 31  1  0  0  0  0
 18  2  1  0  0  0  0
 19  1  1  0  0  0  0
 22  2  1  0  0  0  0
 24  3  1  0  0  0  0
 25  6  1  0  0  0  0
 26 11  1  0  0  0  0
 28 15  1  0  0  0  0
 29 18  1  0  0  0  0
 30 18  1  0  0  0  0
M  END
