315086574.xyz
 OpenBabel07262113493D
Sc1nc2c(n1CCC1CCCC1)cc(cc2)Br
 35 37  0  0  1  0  0  0  0  0999 V2000
    0.0000    0.0000    0.0000 S   0  0  0  0  0  0  0  0  0  0  0  0
   -0.0000    0.0000    1.7508 C   0  0  0  0  0  0  0  0  0  0  0  0
   -1.0796    0.0797    2.5036 N   0  0  0  0  0  0  0  0  0  0  0  0
   -0.6274    0.1393    3.7971 C   0  0  0  0  0  0  0  0  0  0  0  0
    0.7966    0.0872    3.8200 C   0  0  0  0  0  0  0  0  0  0  0  0
    1.1799   -0.0000    2.4996 N   0  0  0  0  0  0  0  0  0  0  0  0
    2.5434   -0.1099    1.9974 C   0  0  0  0  0  0  0  0  0  0  0  0
    3.0121   -1.5533    1.7985 C   0  0  0  0  0  0  0  0  0  0  0  0
    3.0448   -2.4179    3.0660 C   0  0  0  0  0  0  0  0  0  0  0  0
    3.3353   -3.8956    2.7469 C   0  0  0  0  0  0  0  0  0  0  0  0
    4.8615   -3.9596    2.5529 C   0  0  0  0  0  0  0  0  0  0  0  0
    5.4358   -2.8534    3.4800 C   0  0  0  0  0  0  0  0  0  0  0  0
    4.2125   -2.0600    4.0096 C   0  0  0  0  0  0  0  0  0  0  0  0
    1.5285    0.1312    5.0133 C   0  0  0  0  0  0  0  0  0  0  0  0
    0.7841    0.2220    6.1856 C   0  0  1  0  0  0  0  0  0  0  0  0
   -0.6294    0.2740    6.1958 C   0  0  0  0  0  0  0  0  0  0  0  0
   -1.3420    0.2352    5.0043 C   0  0  0  0  0  0  0  0  0  0  0  0
    1.7091    0.2673    7.8531 Br  0  0  0  0  0  0  0  0  0  0  0  0
    0.0875   -2.2656   -0.4801 Au  0  0  0  0  0  0  0  0  0  0  0  0
    3.1963    0.4293    2.7001 H   0  0  0  0  0  0  0  0  0  0  0  0
    2.5802    0.4235    1.0376 H   0  0  0  0  0  0  0  0  0  0  0  0
    4.0118   -1.5149    1.3328 H   0  0  0  0  0  0  0  0  0  0  0  0
    2.3482   -2.0259    1.0545 H   0  0  0  0  0  0  0  0  0  0  0  0
    2.0745   -2.3209    3.5773 H   0  0  0  0  0  0  0  0  0  0  0  0
    3.0387   -4.5127    3.6113 H   0  0  0  0  0  0  0  0  0  0  0  0
    2.7701   -4.2651    1.8761 H   0  0  0  0  0  0  0  0  0  0  0  0
    5.1196   -3.7516    1.5023 H   0  0  0  0  0  0  0  0  0  0  0  0
    5.2678   -4.9562    2.7816 H   0  0  0  0  0  0  0  0  0  0  0  0
    6.1257   -2.1985    2.9259 H   0  0  0  0  0  0  0  0  0  0  0  0
    6.0169   -3.2781    4.3122 H   0  0  0  0  0  0  0  0  0  0  0  0
    4.4107   -0.9780    4.0612 H   0  0  0  0  0  0  0  0  0  0  0  0
    3.9604   -2.3799    5.0328 H   0  0  0  0  0  0  0  0  0  0  0  0
    2.6154    0.0864    5.0398 H   0  0  0  0  0  0  0  0  0  0  0  0
   -1.1511    0.3440    7.1508 H   0  0  0  0  0  0  0  0  0  0  0  0
   -2.4324    0.2762    4.9931 H   0  0  0  0  0  0  0  0  0  0  0  0
  1  2  1  0  0  0  0
  2  6  1  0  0  0  0
  2  3  2  0  0  0  0
  3  4  2  0  0  0  0
  4  5  1  0  0  0  0
  4 17  1  0  0  0  0
  5 14  2  0  0  0  0
  6  5  1  0  0  0  0
  7  6  1  0  0  0  0
  7 20  1  0  0  0  0
  8  7  1  0  0  0  0
  8  9  1  0  0  0  0
  9 24  1  0  0  0  0
  9 13  1  0  0  0  0
 10  9  1  0  0  0  0
 10 25  1  0  0  0  0
 11 10  1  0  0  0  0
 11 28  1  0  0  0  0
 11 12  1  0  0  0  0
 12 13  1  0  0  0  0
 12 30  1  0  0  0  0
 13 31  1  0  0  0  0
 13 32  1  0  0  0  0
 14 33  1  0  0  0  0
 14 15  1  0  0  0  0
 15 16  1  0  0  0  0
 15 18  1  1  0  0  0
 16 34  1  0  0  0  0
 17 16  2  0  0  0  0
 19  1  1  0  0  0  0
 21  7  1  0  0  0  0
 22  8  1  0  0  0  0
 23  8  1  0  0  0  0
 26 10  1  0  0  0  0
 27 11  1  0  0  0  0
 29 12  1  0  0  0  0
 35 17  1  0  0  0  0
M  RAD  1  15   2
M  END
