315113226.xyz
 OpenBabel07262113493D
Cc1noc(n1)Cn1c(S)nnc1c1cccs1
 27 29  0  0  0  0  0  0  0  0999 V2000
   -4.5273   -4.3840    1.6771 C   0  0  0  0  0  0  0  0  0  0  0  0
   -3.9472   -3.0596    1.3265 C   0  0  0  0  0  0  0  0  0  0  0  0
   -3.7683   -2.6631    0.0899 N   0  0  0  0  0  0  0  0  0  0  0  0
   -3.2107   -1.3957    0.2239 O   0  0  0  0  0  0  0  0  0  0  0  0
   -3.1100   -1.1497    1.5335 C   0  0  0  0  0  0  0  0  0  0  0  0
   -3.5478   -2.1289    2.2648 N   0  0  0  0  0  0  0  0  0  0  0  0
   -2.5087    0.1495    1.9762 C   0  0  0  0  0  0  0  0  0  0  0  0
   -1.1615    0.0045    2.4952 N   0  0  0  0  0  0  0  0  0  0  0  0
    0.0000    0.0000    1.7544 C   0  0  0  0  0  0  0  0  0  0  0  0
    0.0000    0.0000    0.0000 S   0  0  0  0  0  0  0  0  0  0  0  0
    1.0417   -0.0000    2.5631 N   0  0  0  0  0  0  0  0  0  0  0  0
    0.5809   -0.0037    3.8472 N   0  0  0  0  0  0  0  0  0  0  0  0
   -0.7337   -0.0117    3.8194 C   0  0  0  0  0  0  0  0  0  0  0  0
   -1.6035    0.0083    4.9815 C   0  0  0  0  0  0  0  0  0  0  0  0
   -2.8384   -0.5831    5.1797 C   0  0  0  0  0  0  0  0  0  0  0  0
   -3.3532   -0.3443    6.4869 C   0  0  0  0  0  0  0  0  0  0  0  0
   -2.5071    0.4125    7.2608 C   0  0  0  0  0  0  0  0  0  0  0  0
   -1.0689    0.8510    6.4126 S   0  0  0  0  0  0  0  0  0  0  0  0
   -5.4377   -4.2510    2.2815 H   0  0  0  0  0  0  0  0  0  0  0  0
   -4.7724   -4.9450    0.7665 H   0  0  0  0  0  0  0  0  0  0  0  0
   -3.8105   -4.9616    2.2807 H   0  0  0  0  0  0  0  0  0  0  0  0
   -2.4850    0.8395    1.1209 H   0  0  0  0  0  0  0  0  0  0  0  0
   -3.1334    0.5827    2.7686 H   0  0  0  0  0  0  0  0  0  0  0  0
    2.2939    0.2918   -0.2099 Au  0  0  0  0  0  0  0  0  0  0  0  0
   -3.3250   -1.2111    4.4318 H   0  0  0  0  0  0  0  0  0  0  0  0
   -4.3081   -0.7329    6.8429 H   0  0  0  0  0  0  0  0  0  0  0  0
   -2.6476    0.7299    8.2930 H   0  0  0  0  0  0  0  0  0  0  0  0
  1 21  1  0  0  0  0
  1 19  1  0  0  0  0
  2  1  1  0  0  0  0
  2  6  2  0  0  0  0
  3  4  1  0  0  0  0
  3  2  2  0  0  0  0
  4  5  1  0  0  0  0
  5  7  1  0  0  0  0
  5  6  2  0  0  0  0
  7  8  1  0  0  0  0
  7 23  1  0  0  0  0
  8 13  1  0  0  0  0
  9  8  1  0  0  0  0
  9 11  2  0  0  0  0
 10  9  1  0  0  0  0
 11 12  1  0  0  0  0
 13 12  2  0  0  0  0
 13 14  1  0  0  0  0
 14 15  2  0  0  0  0
 14 18  1  0  0  0  0
 15 16  1  0  0  0  0
 16 26  1  0  0  0  0
 16 17  2  0  0  0  0
 17 27  1  0  0  0  0
 18 17  1  0  0  0  0
 20  1  1  0  0  0  0
 22  7  1  0  0  0  0
 24 10  1  0  0  0  0
 25 15  1  0  0  0  0
M  END
