315253015.xyz
 OpenBabel07262113493D
Sc1n[nH]c(=O)n1Cc1cccc2c1cccc2
 29 31  0  0  0  0  0  0  0  0999 V2000
    0.0000    0.0000    0.0000 S   0  0  0  0  0  0  0  0  0  0  0  0
   -0.0000    0.0000    1.7595 C   0  0  0  0  0  0  0  0  0  0  0  0
    1.0421   -0.0000    2.5434 N   0  0  0  0  0  0  0  0  0  0  0  0
    0.5165    0.0010    3.8148 N   0  0  0  0  0  0  0  0  0  0  0  0
   -0.8539   -0.0005    3.8484 C   0  0  0  0  0  0  0  0  0  0  0  0
   -1.6225   -0.0147    4.7928 O   0  0  0  0  0  0  0  0  0  0  0  0
   -1.1798    0.0039    2.4807 N   0  0  0  0  0  0  0  0  0  0  0  0
   -2.5496    0.0324    1.9881 C   0  0  0  0  0  0  0  0  0  0  0  0
   -2.9187   -1.1790    1.1615 C   0  0  0  0  0  0  0  0  0  0  0  0
   -3.1569   -1.0257   -0.1921 C   0  0  0  0  0  0  0  0  0  0  0  0
   -3.4607   -2.1329   -1.0195 C   0  0  0  0  0  0  0  0  0  0  0  0
   -3.5170   -3.3970   -0.4802 C   0  0  0  0  0  0  0  0  0  0  0  0
   -3.2917   -3.6055    0.9090 C   0  0  0  0  0  0  0  0  0  0  0  0
   -2.9977   -2.4819    1.7543 C   0  0  0  0  0  0  0  0  0  0  0  0
   -2.8076   -2.7126    3.1466 C   0  0  0  0  0  0  0  0  0  0  0  0
   -2.8864   -3.9885    3.6675 C   0  0  0  0  0  0  0  0  0  0  0  0
   -3.1590   -5.0966    2.8305 C   0  0  0  0  0  0  0  0  0  0  0  0
   -3.3611   -4.9049    1.4806 C   0  0  0  0  0  0  0  0  0  0  0  0
    2.2134    0.5780   -0.3346 Au  0  0  0  0  0  0  0  0  0  0  0  0
    1.1229    0.0037    4.6238 H   0  0  0  0  0  0  0  0  0  0  0  0
   -2.6926    0.9441    1.3882 H   0  0  0  0  0  0  0  0  0  0  0  0
   -3.1727    0.1195    2.8901 H   0  0  0  0  0  0  0  0  0  0  0  0
   -3.0960   -0.0286   -0.6344 H   0  0  0  0  0  0  0  0  0  0  0  0
   -3.6391   -1.9765   -2.0856 H   0  0  0  0  0  0  0  0  0  0  0  0
   -3.7396   -4.2617   -1.1107 H   0  0  0  0  0  0  0  0  0  0  0  0
   -2.6086   -1.8805    3.8231 H   0  0  0  0  0  0  0  0  0  0  0  0
   -2.7401   -4.1420    4.7392 H   0  0  0  0  0  0  0  0  0  0  0  0
   -3.2153   -6.1005    3.2580 H   0  0  0  0  0  0  0  0  0  0  0  0
   -3.5822   -5.7524    0.8266 H   0  0  0  0  0  0  0  0  0  0  0  0
  1  2  1  0  0  0  0
  2  7  1  0  0  0  0
  2  3  2  0  0  0  0
  3  4  1  0  0  0  0
  4  5  1  0  0  0  0
  4 20  1  0  0  0  0
  5  6  2  0  0  0  0
  7  5  1  0  0  0  0
  8  7  1  0  0  0  0
  8 22  1  0  0  0  0
  9 14  1  0  0  0  0
  9  8  1  0  0  0  0
 10  9  2  0  0  0  0
 11 12  2  0  0  0  0
 11 10  1  0  0  0  0
 12 13  1  0  0  0  0
 13 18  2  0  0  0  0
 13 14  1  0  0  0  0
 14 15  2  0  0  0  0
 15 16  1  0  0  0  0
 15 26  1  0  0  0  0
 16 27  1  0  0  0  0
 17 28  1  0  0  0  0
 17 16  2  0  0  0  0
 18 17  1  0  0  0  0
 19  1  1  0  0  0  0
 21  8  1  0  0  0  0
 23 10  1  0  0  0  0
 24 11  1  0  0  0  0
 25 12  1  0  0  0  0
 29 18  1  0  0  0  0
M  END
