315209731.xyz
 OpenBabel07262113493D
CCC(n1c(S)nc2c1cccc2C#N)(C)C
 32 33  0  0  1  0  0  0  0  0999 V2000
    2.4273    2.6238    2.5328 C   0  0  0  0  0  0  0  0  0  0  0  0
    3.1791    1.3453    2.8953 C   0  0  0  0  0  0  0  0  0  0  0  0
    2.5827    0.0451    2.2950 C   0  0  0  0  0  0  0  0  0  0  0  0
    1.1183   -0.0000    2.6000 N   0  0  0  0  0  0  0  0  0  0  0  0
    0.0000   -0.0000    1.7661 C   0  0  0  0  0  0  0  0  0  0  0  0
    0.0000    0.0000    0.0000 S   0  0  0  0  0  0  0  0  0  0  0  0
   -1.1377    0.0007    2.4392 N   0  0  0  0  0  0  0  0  0  0  0  0
   -0.8013    0.0105    3.7629 C   0  0  0  0  0  0  0  0  0  0  0  0
    0.6095    0.0138    3.9086 C   0  0  2  0  0  0  0  0  0  0  0  0
    1.1938    0.0397    5.1802 C   0  0  0  0  0  0  0  0  0  0  0  0
    0.3460    0.0539    6.2933 C   0  0  0  0  0  0  0  0  0  0  0  0
   -1.0487    0.0444    6.1623 C   0  0  0  0  0  0  0  0  0  0  0  0
   -1.6462    0.0233    4.8929 C   0  0  0  0  0  0  0  0  0  0  0  0
   -3.0683    0.0187    4.7299 C   0  0  0  0  0  0  0  0  0  0  0  0
   -4.2229    0.0155    4.6055 N   0  0  0  0  0  0  0  0  0  0  0  0
    3.2459   -1.2029    2.9033 C   0  0  0  0  0  0  0  0  0  0  0  0
    2.8664    0.0204    0.7901 C   0  0  0  0  0  0  0  0  0  0  0  0
    2.9393    3.5031    2.9523 H   0  0  0  0  0  0  0  0  0  0  0  0
    1.4029    2.6125    2.9348 H   0  0  0  0  0  0  0  0  0  0  0  0
    2.3567    2.7699    1.4442 H   0  0  0  0  0  0  0  0  0  0  0  0
    3.2363    1.2594    3.9897 H   0  0  0  0  0  0  0  0  0  0  0  0
    4.2235    1.4065    2.5481 H   0  0  0  0  0  0  0  0  0  0  0  0
   -2.3166    0.0052   -0.2156 Au  0  0  0  0  0  0  0  0  0  0  0  0
    2.2705    0.0507    5.3311 H   0  0  0  0  0  0  0  0  0  0  0  0
    0.7869    0.0732    7.2919 H   0  0  0  0  0  0  0  0  0  0  0  0
   -1.6833    0.0554    7.0494 H   0  0  0  0  0  0  0  0  0  0  0  0
    4.3298   -1.1717    2.7175 H   0  0  0  0  0  0  0  0  0  0  0  0
    3.0920   -1.2843    3.9856 H   0  0  0  0  0  0  0  0  0  0  0  0
    2.8418   -2.1127    2.4348 H   0  0  0  0  0  0  0  0  0  0  0  0
    2.4741   -0.8888    0.3157 H   0  0  0  0  0  0  0  0  0  0  0  0
    3.9578    0.0232    0.6550 H   0  0  0  0  0  0  0  0  0  0  0  0
    2.4618    0.8945    0.2657 H   0  0  0  0  0  0  0  0  0  0  0  0
  1  2  1  0  0  0  0
  1 19  1  0  0  0  0
  1 18  1  0  0  0  0
  2 21  1  0  0  0  0
  3  4  1  0  0  0  0
  3  2  1  0  0  0  0
  3 16  1  0  0  0  0
  4  9  1  0  0  0  0
  5  7  2  0  0  0  0
  5  4  1  0  0  0  0
  6  5  1  0  0  0  0
  7  8  2  0  0  0  0
  8 13  1  0  0  0  0
  9  8  1  6  0  0  0
  9 10  1  0  0  0  0
 10 24  1  0  0  0  0
 10 11  2  0  0  0  0
 11 25  1  0  0  0  0
 12 11  1  0  0  0  0
 12 26  1  0  0  0  0
 13 12  2  0  0  0  0
 14 13  1  0  0  0  0
 15 14  3  0  0  0  0
 16 28  1  0  0  0  0
 17  3  1  0  0  0  0
 20  1  1  0  0  0  0
 22  2  1  0  0  0  0
 23  6  1  0  0  0  0
 27 16  1  0  0  0  0
 29 16  1  0  0  0  0
 30 17  1  0  0  0  0
 31 17  1  0  0  0  0
 32 17  1  0  0  0  0
M  RAD  1   9   2
M  END
