315375103.xyz
 OpenBabel07262113493D
Cc1cccc(n1)CN(c1nnc(s1)S)C
 28 29  0  0  0  0  0  0  0  0999 V2000
    1.9331    4.0177    8.7970 C   0  0  0  0  0  0  0  0  0  0  0  0
    0.8641    3.4486    7.9018 C   0  0  0  0  0  0  0  0  0  0  0  0
   -0.1781    4.2401    7.3965 C   0  0  0  0  0  0  0  0  0  0  0  0
   -1.1358    3.6523    6.5689 C   0  0  0  0  0  0  0  0  0  0  0  0
   -1.0327    2.2947    6.2701 C   0  0  0  0  0  0  0  0  0  0  0  0
    0.0367    1.5764    6.8243 C   0  0  0  0  0  0  0  0  0  0  0  0
    0.9566    2.1428    7.6131 N   0  0  0  0  0  0  0  0  0  0  0  0
    0.2504    0.1132    6.4961 C   0  0  0  0  0  0  0  0  0  0  0  0
    1.1325   -0.0660    5.3399 N   0  0  0  0  0  0  0  0  0  0  0  0
    0.5662   -0.0156    4.1036 C   0  0  0  0  0  0  0  0  0  0  0  0
   -0.7215    0.0071    3.8701 N   0  0  0  0  0  0  0  0  0  0  0  0
   -1.0305    0.0017    2.5478 N   0  0  0  0  0  0  0  0  0  0  0  0
    0.0000   -0.0000    1.7562 C   0  0  0  0  0  0  0  0  0  0  0  0
    1.5440   -0.0000    2.6223 S   0  0  0  0  0  0  0  0  0  0  0  0
    0.0000    0.0000    0.0000 S   0  0  0  0  0  0  0  0  0  0  0  0
    2.5502    0.1961    5.4989 C   0  0  0  0  0  0  0  0  0  0  0  0
    2.9271    3.8608    8.3487 H   0  0  0  0  0  0  0  0  0  0  0  0
    1.7916    5.0927    8.9765 H   0  0  0  0  0  0  0  0  0  0  0  0
    1.9353    3.4937    9.7662 H   0  0  0  0  0  0  0  0  0  0  0  0
   -0.2324    5.3009    7.6502 H   0  0  0  0  0  0  0  0  0  0  0  0
   -1.9545    4.2494    6.1592 H   0  0  0  0  0  0  0  0  0  0  0  0
   -1.7394    1.7904    5.6100 H   0  0  0  0  0  0  0  0  0  0  0  0
   -0.7004   -0.3818    6.2664 H   0  0  0  0  0  0  0  0  0  0  0  0
    0.7230   -0.3777    7.3584 H   0  0  0  0  0  0  0  0  0  0  0  0
   -2.3009   -0.0205   -0.2723 Au  0  0  0  0  0  0  0  0  0  0  0  0
    3.1343   -0.4522    4.8252 H   0  0  0  0  0  0  0  0  0  0  0  0
    2.8385   -0.0263    6.5339 H   0  0  0  0  0  0  0  0  0  0  0  0
    2.8157    1.2494    5.2944 H   0  0  0  0  0  0  0  0  0  0  0  0
  1 18  1  0  0  0  0
  1 19  1  0  0  0  0
  2  1  1  0  0  0  0
  3 20  1  0  0  0  0
  3  2  1  0  0  0  0
  4  3  2  0  0  0  0
  5  4  1  0  0  0  0
  5  6  1  0  0  0  0
  6  7  2  0  0  0  0
  7  2  2  0  0  0  0
  8  6  1  0  0  0  0
  8 24  1  0  0  0  0
  9 16  1  0  0  0  0
  9  8  1  0  0  0  0
 10  9  1  0  0  0  0
 11 10  2  0  0  0  0
 12 11  1  0  0  0  0
 13 12  2  0  0  0  0
 13 14  1  0  0  0  0
 14 10  1  0  0  0  0
 15 13  1  0  0  0  0
 16 27  1  0  0  0  0
 17  1  1  0  0  0  0
 21  4  1  0  0  0  0
 22  5  1  0  0  0  0
 23  8  1  0  0  0  0
 25 15  1  0  0  0  0
 26 16  1  0  0  0  0
 28 16  1  0  0  0  0
M  RAD  1   5   2
M  END
