315300715.xyz
 OpenBabel07262113493D
CC(n1c(S)nnc1N1CCCC(CC1)(C)C)C
 42 43  0  0  0  0  0  0  0  0999 V2000
   -3.1622    1.3961    2.1369 C   0  0  0  0  0  0  0  0  0  0  0  0
   -2.5217    0.0157    1.9963 C   0  0  0  0  0  0  0  0  0  0  0  0
   -1.1441    0.0133    2.5133 N   0  0  0  0  0  0  0  0  0  0  0  0
    0.0000   -0.0000    1.7595 C   0  0  0  0  0  0  0  0  0  0  0  0
    0.0000    0.0000    0.0000 S   0  0  0  0  0  0  0  0  0  0  0  0
    1.0623    0.0000    2.5459 N   0  0  0  0  0  0  0  0  0  0  0  0
    0.6216    0.0248    3.8369 N   0  0  0  0  0  0  0  0  0  0  0  0
   -0.6924    0.0384    3.8318 C   0  0  0  0  0  0  0  0  0  0  0  0
   -1.5342    0.0771    4.9347 N   0  0  0  0  0  0  0  0  0  0  0  0
   -1.6824    1.3861    5.5748 C   0  0  0  0  0  0  0  0  0  0  0  0
   -0.4994    1.8374    6.4392 C   0  0  0  0  0  0  0  0  0  0  0  0
   -0.4224    1.1888    7.8217 C   0  0  0  0  0  0  0  0  0  0  0  0
   -0.3323   -0.3529    7.8882 C   0  0  0  0  0  0  0  0  0  0  0  0
   -1.5831   -1.0062    7.2479 C   0  0  0  0  0  0  0  0  0  0  0  0
   -1.6376   -1.1568    5.7271 C   0  0  0  0  0  0  0  0  0  0  0  0
   -0.3219   -0.7454    9.3771 C   0  0  0  0  0  0  0  0  0  0  0  0
    0.9610   -0.8592    7.2309 C   0  0  0  0  0  0  0  0  0  0  0  0
   -3.3645   -1.0987    2.6144 C   0  0  0  0  0  0  0  0  0  0  0  0
   -3.3264    1.6457    3.1952 H   0  0  0  0  0  0  0  0  0  0  0  0
   -4.1375    1.4127    1.6268 H   0  0  0  0  0  0  0  0  0  0  0  0
   -2.5234    2.1698    1.6854 H   0  0  0  0  0  0  0  0  0  0  0  0
   -2.4087   -0.2021    0.9230 H   0  0  0  0  0  0  0  0  0  0  0  0
    2.3139   -0.0992   -0.1916 Au  0  0  0  0  0  0  0  0  0  0  0  0
   -2.6152    1.3865    6.1645 H   0  0  0  0  0  0  0  0  0  0  0  0
   -1.8345    2.1201    4.7683 H   0  0  0  0  0  0  0  0  0  0  0  0
   -0.5781    2.9299    6.5788 H   0  0  0  0  0  0  0  0  0  0  0  0
    0.4271    1.6637    5.8695 H   0  0  0  0  0  0  0  0  0  0  0  0
    0.4488    1.6059    8.3558 H   0  0  0  0  0  0  0  0  0  0  0  0
   -1.3097    1.4989    8.4046 H   0  0  0  0  0  0  0  0  0  0  0  0
   -1.6786   -2.0332    7.6416 H   0  0  0  0  0  0  0  0  0  0  0  0
   -2.4816   -0.4750    7.6065 H   0  0  0  0  0  0  0  0  0  0  0  0
   -0.8300   -1.8309    5.4049 H   0  0  0  0  0  0  0  0  0  0  0  0
   -2.5858   -1.6777    5.4865 H   0  0  0  0  0  0  0  0  0  0  0  0
   -1.2572   -0.4435    9.8771 H   0  0  0  0  0  0  0  0  0  0  0  0
    0.5136   -0.2605    9.9068 H   0  0  0  0  0  0  0  0  0  0  0  0
   -0.2107   -1.8350    9.4985 H   0  0  0  0  0  0  0  0  0  0  0  0
    1.8389   -0.4488    7.7563 H   0  0  0  0  0  0  0  0  0  0  0  0
    1.0425   -0.5763    6.1716 H   0  0  0  0  0  0  0  0  0  0  0  0
    1.0244   -1.9587    7.2941 H   0  0  0  0  0  0  0  0  0  0  0  0
   -2.8503   -2.0682    2.5361 H   0  0  0  0  0  0  0  0  0  0  0  0
   -4.3240   -1.1728    2.0805 H   0  0  0  0  0  0  0  0  0  0  0  0
   -3.5696   -0.8947    3.6733 H   0  0  0  0  0  0  0  0  0  0  0  0
  1 19  1  0  0  0  0
  2  1  1  0  0  0  0
  2  3  1  0  0  0  0
  2 18  1  0  0  0  0
  3  8  1  0  0  0  0
  4  3  1  0  0  0  0
  4  6  2  0  0  0  0
  5  4  1  0  0  0  0
  6  7  1  0  0  0  0
  8  7  2  0  0  0  0
  8  9  1  0  0  0  0
  9 10  1  0  0  0  0
  9 15  1  0  0  0  0
 10 24  1  0  0  0  0
 10 11  1  0  0  0  0
 11 26  1  0  0  0  0
 11 12  1  0  0  0  0
 12 13  1  0  0  0  0
 12 28  1  0  0  0  0
 12 29  1  0  0  0  0
 13 16  1  0  0  0  0
 14 31  1  0  0  0  0
 14 30  1  0  0  0  0
 14 13  1  0  0  0  0
 15 14  1  0  0  0  0
 16 36  1  0  0  0  0
 16 34  1  0  0  0  0
 16 35  1  0  0  0  0
 17 39  1  0  0  0  0
 17 37  1  0  0  0  0
 17 13  1  0  0  0  0
 18 42  1  0  0  0  0
 20  1  1  0  0  0  0
 21  1  1  0  0  0  0
 22  2  1  0  0  0  0
 23  5  1  0  0  0  0
 25 10  1  0  0  0  0
 27 11  1  0  0  0  0
 32 15  1  0  0  0  0
 33 15  1  0  0  0  0
 38 17  1  0  0  0  0
 40 18  1  0  0  0  0
 41 18  1  0  0  0  0
M  END
