315418197.xyz
 OpenBabel07262113493D
Cc1cnc2c(c1)nc(n2CC1(C)CCCC1)S
 37 39  0  0  0  0  0  0  0  0999 V2000
    0.9815   -0.2299    7.5934 C   0  0  0  0  0  0  0  0  0  0  0  0
    0.3845   -0.1828    6.2094 C   0  0  0  0  0  0  0  0  0  0  0  0
   -1.0162   -0.2187    6.0333 C   0  0  0  0  0  0  0  0  0  0  0  0
   -1.6386   -0.1708    4.8479 N   0  0  0  0  0  0  0  0  0  0  0  0
   -0.8348   -0.0865    3.8056 C   0  0  0  0  0  0  0  0  0  0  0  0
    0.5845   -0.0556    3.8260 C   0  0  0  0  0  0  0  0  0  0  0  0
    1.2071   -0.1021    5.0736 C   0  0  0  0  0  0  0  0  0  0  0  0
    1.0694   -0.0000    2.5342 N   0  0  0  0  0  0  0  0  0  0  0  0
    0.0000   -0.0000    1.7591 C   0  0  0  0  0  0  0  0  0  0  0  0
   -1.1915   -0.0369    2.4621 N   0  0  0  0  0  0  0  0  0  0  0  0
   -2.5494   -0.1296    1.9509 C   0  0  0  0  0  0  0  0  0  0  0  0
   -3.3007    1.2029    1.7615 C   0  0  0  0  0  0  0  0  0  0  0  0
   -4.6971    0.8435    1.2282 C   0  0  0  0  0  0  0  0  0  0  0  0
   -2.5944    2.1978    0.8163 C   0  0  0  0  0  0  0  0  0  0  0  0
   -3.2364    3.5677    1.1208 C   0  0  0  0  0  0  0  0  0  0  0  0
   -3.7810    3.4605    2.5744 C   0  0  0  0  0  0  0  0  0  0  0  0
   -3.4064    2.0438    3.0522 C   0  0  0  0  0  0  0  0  0  0  0  0
    0.0000    0.0000    0.0000 S   0  0  0  0  0  0  0  0  0  0  0  0
    1.6852   -1.0719    7.6989 H   0  0  0  0  0  0  0  0  0  0  0  0
    0.2034   -0.3441    8.3624 H   0  0  0  0  0  0  0  0  0  0  0  0
    1.5434    0.6916    7.8198 H   0  0  0  0  0  0  0  0  0  0  0  0
   -1.6621   -0.2905    6.9154 H   0  0  0  0  0  0  0  0  0  0  0  0
    2.2964   -0.0807    5.1595 H   0  0  0  0  0  0  0  0  0  0  0  0
   -3.1057   -0.7540    2.6660 H   0  0  0  0  0  0  0  0  0  0  0  0
   -2.5056   -0.6697    0.9920 H   0  0  0  0  0  0  0  0  0  0  0  0
   -5.2363    0.1967    1.9390 H   0  0  0  0  0  0  0  0  0  0  0  0
   -4.6274    0.3089    0.2668 H   0  0  0  0  0  0  0  0  0  0  0  0
   -5.3121    1.7399    1.0639 H   0  0  0  0  0  0  0  0  0  0  0  0
   -1.5223    2.2294    1.0622 H   0  0  0  0  0  0  0  0  0  0  0  0
   -2.6698    1.9054   -0.2426 H   0  0  0  0  0  0  0  0  0  0  0  0
   -4.0538    3.7822    0.4151 H   0  0  0  0  0  0  0  0  0  0  0  0
   -2.5078    4.3842    1.0074 H   0  0  0  0  0  0  0  0  0  0  0  0
   -4.8728    3.6025    2.5888 H   0  0  0  0  0  0  0  0  0  0  0  0
   -3.3602    4.2326    3.2358 H   0  0  0  0  0  0  0  0  0  0  0  0
   -4.1139    1.6173    3.7792 H   0  0  0  0  0  0  0  0  0  0  0  0
   -2.4246    2.0650    3.5471 H   0  0  0  0  0  0  0  0  0  0  0  0
    2.2814   -0.3077   -0.2536 Au  0  0  0  0  0  0  0  0  0  0  0  0
  1 19  1  0  0  0  0
  1 21  1  0  0  0  0
  1 20  1  0  0  0  0
  2  1  1  0  0  0  0
  3  2  1  0  0  0  0
  3 22  1  0  0  0  0
  4  3  2  0  0  0  0
  5  6  1  0  0  0  0
  5  4  2  0  0  0  0
  6  7  1  0  0  0  0
  7 23  1  0  0  0  0
  7  2  2  0  0  0  0
  8  6  2  0  0  0  0
  9 10  1  0  0  0  0
  9  8  2  0  0  0  0
 10  5  1  0  0  0  0
 11 10  1  0  0  0  0
 11 24  1  0  0  0  0
 12 11  1  0  0  0  0
 12 17  1  0  0  0  0
 13 12  1  0  0  0  0
 13 26  1  0  0  0  0
 14 29  1  0  0  0  0
 14 15  1  0  0  0  0
 14 12  1  0  0  0  0
 15 16  1  0  0  0  0
 16 33  1  0  0  0  0
 16 17  1  0  0  0  0
 16 34  1  0  0  0  0
 17 36  1  0  0  0  0
 17 35  1  0  0  0  0
 18  9  1  0  0  0  0
 25 11  1  0  0  0  0
 27 13  1  0  0  0  0
 28 13  1  0  0  0  0
 30 14  1  0  0  0  0
 31 15  1  0  0  0  0
 32 15  1  0  0  0  0
 37 18  1  0  0  0  0
M  END
