315445066.xyz
 OpenBabel07262113493D
SCC(C(C)(C)C)Cn1ccc(n1)C(F)(F)F
 34 34  0  0  1  0  0  0  0  0999 V2000
    0.0000    0.0000    0.0000 S   0  0  0  0  0  0  0  0  0  0  0  0
   -0.0000   -0.0000    1.8476 C   0  0  0  0  0  0  0  0  0  0  0  0
    1.4468   -0.0000    2.3677 C   0  0  2  0  0  0  0  0  0  0  0  0
    1.5167   -0.3780    3.8930 C   0  0  0  0  0  0  0  0  0  0  0  0
    1.2519   -1.8907    4.0221 C   0  0  0  0  0  0  0  0  0  0  0  0
    2.9234   -0.0917    4.4478 C   0  0  0  0  0  0  0  0  0  0  0  0
    0.4845    0.3816    4.7473 C   0  0  0  0  0  0  0  0  0  0  0  0
    2.1973    1.2777    1.9324 C   0  0  0  0  0  0  0  0  0  0  0  0
    1.5924    2.5345    2.3473 N   0  0  0  0  0  0  0  0  0  0  0  0
    0.6199    3.2307    1.6931 C   0  0  0  0  0  0  0  0  0  0  0  0
    0.3054    4.3200    2.4897 C   0  0  0  0  0  0  0  0  0  0  0  0
    1.1595    4.1802    3.6075 C   0  0  0  0  0  0  0  0  0  0  0  0
    1.9314    3.1005    3.5090 N   0  0  0  0  0  0  0  0  0  0  0  0
    1.2327    5.0455    4.8267 C   0  0  0  0  0  0  0  0  0  0  0  0
    2.4736    5.4971    5.0615 F   0  0  0  0  0  0  0  0  0  0  0  0
    0.4267    6.1147    4.6928 F   0  0  0  0  0  0  0  0  0  0  0  0
    0.8396    4.3822    5.9310 F   0  0  0  0  0  0  0  0  0  0  0  0
   -2.2125    0.2913   -0.5142 Au  0  0  0  0  0  0  0  0  0  0  0  0
   -0.5323   -0.8920    2.1960 H   0  0  0  0  0  0  0  0  0  0  0  0
   -0.5373    0.8846    2.2117 H   0  0  0  0  0  0  0  0  0  0  0  0
    1.9877   -0.8074    1.8412 H   0  0  0  0  0  0  0  0  0  0  0  0
    2.0090   -2.4760    3.4755 H   0  0  0  0  0  0  0  0  0  0  0  0
    0.2613   -2.1767    3.6363 H   0  0  0  0  0  0  0  0  0  0  0  0
    1.2906   -2.1954    5.0795 H   0  0  0  0  0  0  0  0  0  0  0  0
    3.0149   -0.5109    5.4620 H   0  0  0  0  0  0  0  0  0  0  0  0
    3.1211    0.9871    4.5144 H   0  0  0  0  0  0  0  0  0  0  0  0
    3.7053   -0.5596    3.8262 H   0  0  0  0  0  0  0  0  0  0  0  0
    0.5873    0.0783    5.8013 H   0  0  0  0  0  0  0  0  0  0  0  0
    0.6349    1.4680    4.7049 H   0  0  0  0  0  0  0  0  0  0  0  0
   -0.5495    0.1546    4.4463 H   0  0  0  0  0  0  0  0  0  0  0  0
    2.2459    1.2978    0.8354 H   0  0  0  0  0  0  0  0  0  0  0  0
    3.2245    1.2765    2.3115 H   0  0  0  0  0  0  0  0  0  0  0  0
    0.2417    2.8907    0.7313 H   0  0  0  0  0  0  0  0  0  0  0  0
   -0.4195    5.1051    2.2971 H   0  0  0  0  0  0  0  0  0  0  0  0
  1  2  1  0  0  0  0
  2 19  1  0  0  0  0
  2 20  1  0  0  0  0
  2  3  1  0  0  0  0
  3 21  1  6  0  0  0
  3  4  1  0  0  0  0
  4  5  1  0  0  0  0
  4  6  1  0  0  0  0
  4  7  1  0  0  0  0
  5 24  1  0  0  0  0
  6 26  1  0  0  0  0
  6 25  1  0  0  0  0
  7 28  1  0  0  0  0
  8 32  1  0  0  0  0
  8  9  1  0  0  0  0
  8  3  1  0  0  0  0
  9 13  1  0  0  0  0
 10  9  1  0  0  0  0
 10 11  2  0  0  0  0
 11 12  1  0  0  0  0
 12 14  1  0  0  0  0
 13 12  2  0  0  0  0
 14 15  1  0  0  0  0
 14 17  1  0  0  0  0
 16 14  1  0  0  0  0
 18  1  1  0  0  0  0
 22  5  1  0  0  0  0
 23  5  1  0  0  0  0
 27  6  1  0  0  0  0
 29  7  1  0  0  0  0
 30  7  1  0  0  0  0
 31  8  1  0  0  0  0
 33 10  1  0  0  0  0
 34 11  1  0  0  0  0
M  END
