315527362.xyz
 OpenBabel07262113493D
CCc1cnc(n1C(CC(C)(C)C)(C)C)S
 40 40  0  0  1  0  0  0  0  0999 V2000
    0.4960    0.3270    6.4238 C   0  0  0  0  0  0  0  0  0  0  0  0
    1.4064    0.1707    5.2041 C   0  0  0  0  0  0  0  0  0  0  0  0
    0.6351    0.0852    3.9162 C   0  0  1  0  0  0  0  0  0  0  0  0
   -0.7353    0.1130    3.7906 C   0  0  0  0  0  0  0  0  0  0  0  0
   -1.1160    0.0595    2.4781 N   0  0  0  0  0  0  0  0  0  0  0  0
   -0.0000    0.0000    1.7802 C   0  0  0  0  0  0  0  0  0  0  0  0
    1.1250    0.0000    2.5940 N   0  0  0  0  0  0  0  0  0  0  0  0
    2.5377   -0.0463    2.0685 C   0  0  0  0  0  0  0  0  0  0  0  0
    2.7640    1.3275    1.3689 C   0  0  0  0  0  0  0  0  0  0  0  0
    3.9122    1.6065    0.3585 C   0  0  0  0  0  0  0  0  0  0  0  0
    3.6661    0.9116   -0.9942 C   0  0  0  0  0  0  0  0  0  0  0  0
    3.8797    3.1295    0.1142 C   0  0  0  0  0  0  0  0  0  0  0  0
    5.3117    1.2380    0.8764 C   0  0  0  0  0  0  0  0  0  0  0  0
    2.6648   -1.2926    1.1753 C   0  0  0  0  0  0  0  0  0  0  0  0
    3.5510   -0.2353    3.2036 C   0  0  0  0  0  0  0  0  0  0  0  0
    0.0000    0.0000    0.0000 S   0  0  0  0  0  0  0  0  0  0  0  0
    1.1000    0.3923    7.3413 H   0  0  0  0  0  0  0  0  0  0  0  0
   -0.1170    1.2387    6.3562 H   0  0  0  0  0  0  0  0  0  0  0  0
   -0.1861   -0.5304    6.5305 H   0  0  0  0  0  0  0  0  0  0  0  0
    2.0329   -0.7230    5.3504 H   0  0  0  0  0  0  0  0  0  0  0  0
    2.1035    1.0238    5.1775 H   0  0  0  0  0  0  0  0  0  0  0  0
   -1.4716    0.1764    4.5879 H   0  0  0  0  0  0  0  0  0  0  0  0
    2.8479    2.0608    2.1888 H   0  0  0  0  0  0  0  0  0  0  0  0
    1.8371    1.5855    0.8388 H   0  0  0  0  0  0  0  0  0  0  0  0
    2.6525    1.1231   -1.3676 H   0  0  0  0  0  0  0  0  0  0  0  0
    3.7795   -0.1785   -0.9349 H   0  0  0  0  0  0  0  0  0  0  0  0
    4.3883    1.2754   -1.7430 H   0  0  0  0  0  0  0  0  0  0  0  0
    4.6332    3.4219   -0.6343 H   0  0  0  0  0  0  0  0  0  0  0  0
    4.0887    3.6873    1.0413 H   0  0  0  0  0  0  0  0  0  0  0  0
    2.8929    3.4498   -0.2566 H   0  0  0  0  0  0  0  0  0  0  0  0
    5.4512    0.1502    0.9643 H   0  0  0  0  0  0  0  0  0  0  0  0
    6.0802    1.6046    0.1768 H   0  0  0  0  0  0  0  0  0  0  0  0
    5.5133    1.6914    1.8600 H   0  0  0  0  0  0  0  0  0  0  0  0
    2.0314   -1.2561    0.2812 H   0  0  0  0  0  0  0  0  0  0  0  0
    2.3761   -2.1817    1.7559 H   0  0  0  0  0  0  0  0  0  0  0  0
    3.7057   -1.4199    0.8501 H   0  0  0  0  0  0  0  0  0  0  0  0
    3.3297   -1.1332    3.7941 H   0  0  0  0  0  0  0  0  0  0  0  0
    4.5430   -0.3728    2.7618 H   0  0  0  0  0  0  0  0  0  0  0  0
    3.6077    0.6321    3.8702 H   0  0  0  0  0  0  0  0  0  0  0  0
   -2.2872    0.3092   -0.2232 Au  0  0  0  0  0  0  0  0  0  0  0  0
  1 19  1  0  0  0  0
  1 17  1  0  0  0  0
  2 20  1  0  0  0  0
  2  1  1  0  0  0  0
  3  2  1  6  0  0  0
  4  3  1  0  0  0  0
  4 22  1  0  0  0  0
  5  4  2  0  0  0  0
  6  5  2  0  0  0  0
  6  7  1  0  0  0  0
  7  3  1  0  0  0  0
  8  7  1  0  0  0  0
  8 15  1  0  0  0  0
  9  8  1  0  0  0  0
  9 23  1  0  0  0  0
 10 13  1  0  0  0  0
 10  9  1  0  0  0  0
 11 26  1  0  0  0  0
 11 10  1  0  0  0  0
 12 10  1  0  0  0  0
 12 29  1  0  0  0  0
 13 31  1  0  0  0  0
 13 33  1  0  0  0  0
 14 35  1  0  0  0  0
 14  8  1  0  0  0  0
 15 37  1  0  0  0  0
 15 39  1  0  0  0  0
 16  6  1  0  0  0  0
 18  1  1  0  0  0  0
 21  2  1  0  0  0  0
 24  9  1  0  0  0  0
 25 11  1  0  0  0  0
 27 11  1  0  0  0  0
 28 12  1  0  0  0  0
 30 12  1  0  0  0  0
 32 13  1  0  0  0  0
 34 14  1  0  0  0  0
 36 14  1  0  0  0  0
 38 15  1  0  0  0  0
 40 16  1  0  0  0  0
M  RAD  1   3   2
M  END
