315611316.xyz
 OpenBabel07262113493D
Sc1nnc(s1)NCc1cccc2c1nccc2
 28 30  0  0  1  0  0  0  0  0999 V2000
    0.0000    0.0000    0.0000 S   0  0  0  0  0  0  0  0  0  0  0  0
    0.0000    0.0000    1.7411 C   0  0  0  0  0  0  0  0  0  0  0  0
   -1.0610   -0.0679    2.4985 N   0  0  0  0  0  0  0  0  0  0  0  0
   -0.8121   -0.1301    3.8145 N   0  0  0  0  0  0  0  0  0  0  0  0
    0.4793   -0.0884    4.0995 C   0  0  0  0  0  0  0  0  0  0  0  0
    1.5134    0.0000    2.6912 S   0  0  0  0  0  0  0  0  0  0  0  0
    0.9440   -0.1117    5.3671 N   0  0  0  0  0  0  0  0  0  0  0  0
    2.3438   -0.1419    5.7233 C   0  0  0  0  0  0  0  0  0  0  0  0
    3.0202   -1.4898    5.5533 C   0  0  0  0  0  0  0  0  0  0  0  0
    2.3306   -2.6412    5.2338 C   0  0  0  0  0  0  0  0  0  0  0  0
    3.0011   -3.8814    5.0802 C   0  0  0  0  0  0  0  0  0  0  0  0
    4.3649   -3.9666    5.2482 C   0  0  0  0  0  0  0  0  0  0  0  0
    5.1138   -2.8051    5.5793 C   0  0  2  0  0  0  0  0  0  0  0  0
    4.4372   -1.5518    5.7339 C   0  0  0  0  0  0  0  0  0  0  0  0
    5.0968   -0.4050    6.0507 N   0  0  0  0  0  0  0  0  0  0  0  0
    6.4005   -0.4531    6.2186 C   0  0  0  0  0  0  0  0  0  0  0  0
    7.1674   -1.6393    6.0896 C   0  0  0  0  0  0  0  0  0  0  0  0
    6.5201   -2.8123    5.7695 C   0  0  0  0  0  0  0  0  0  0  0  0
    0.2333    2.2436   -0.5164 Au  0  0  0  0  0  0  0  0  0  0  0  0
    0.2305   -0.2145    6.0804 H   0  0  0  0  0  0  0  0  0  0  0  0
    2.8948    0.6095    5.1343 H   0  0  0  0  0  0  0  0  0  0  0  0
    2.4459    0.1918    6.7670 H   0  0  0  0  0  0  0  0  0  0  0  0
    1.2494   -2.5987    5.0906 H   0  0  0  0  0  0  0  0  0  0  0  0
    2.4225   -4.7715    4.8234 H   0  0  0  0  0  0  0  0  0  0  0  0
    4.8866   -4.9195    5.1295 H   0  0  0  0  0  0  0  0  0  0  0  0
    6.9014    0.4896    6.4711 H   0  0  0  0  0  0  0  0  0  0  0  0
    8.2480   -1.6086    6.2425 H   0  0  0  0  0  0  0  0  0  0  0  0
    7.0710   -3.7502    5.6589 H   0  0  0  0  0  0  0  0  0  0  0  0
  1  2  1  0  0  0  0
  2  3  2  0  0  0  0
  2  6  1  0  0  0  0
  3  4  1  0  0  0  0
  4  5  2  0  0  0  0
  5  7  1  0  0  0  0
  6  5  1  0  0  0  0
  7  8  1  0  0  0  0
  7 20  1  0  0  0  0
  8 22  1  0  0  0  0
  9  8  1  0  0  0  0
  9 14  1  0  0  0  0
 10  9  2  0  0  0  0
 11 10  1  0  0  0  0
 11 12  2  0  0  0  0
 13 12  1  6  0  0  0
 13 14  1  0  0  0  0
 13 18  1  0  0  0  0
 14 15  2  0  0  0  0
 15 16  2  0  0  0  0
 16 26  1  0  0  0  0
 17 16  1  0  0  0  0
 17 27  1  0  0  0  0
 18 17  2  0  0  0  0
 19  1  1  0  0  0  0
 21  8  1  0  0  0  0
 23 10  1  0  0  0  0
 24 11  1  0  0  0  0
 25 12  1  0  0  0  0
 28 18  1  0  0  0  0
M  RAD  1  13   2
M  END
