315637378.xyz
 OpenBabel07262113493D
Ic1ccccc1c1nnc(n1C(C)C)S
 28 29  0  0  0  0  0  0  0  0999 V2000
    2.1129   -2.8630    4.6641 I   0  0  0  0  0  0  0  0  0  0  0  0
    2.2006   -0.9452    5.5800 C   0  0  0  0  0  0  0  0  0  0  0  0
    2.9751   -0.8011    6.7347 C   0  0  0  0  0  0  0  0  0  0  0  0
    3.0073    0.4284    7.3967 C   0  0  0  0  0  0  0  0  0  0  0  0
    2.2639    1.5068    6.9116 C   0  0  0  0  0  0  0  0  0  0  0  0
    1.5007    1.3553    5.7546 C   0  0  0  0  0  0  0  0  0  0  0  0
    1.4607    0.1331    5.0608 C   0  0  0  0  0  0  0  0  0  0  0  0
    0.6248    0.0429    3.8457 C   0  0  0  0  0  0  0  0  0  0  0  0
   -0.6858    0.0652    3.8244 N   0  0  0  0  0  0  0  0  0  0  0  0
   -1.0827    0.0298    2.5207 N   0  0  0  0  0  0  0  0  0  0  0  0
   -0.0000   -0.0000    1.7598 C   0  0  0  0  0  0  0  0  0  0  0  0
    1.1227   -0.0000    2.5518 N   0  0  0  0  0  0  0  0  0  0  0  0
    2.5388    0.1116    2.1623 C   0  0  0  0  0  0  0  0  0  0  0  0
    2.8276    1.5099    1.6135 C   0  0  0  0  0  0  0  0  0  0  0  0
    2.9637   -1.0083    1.2145 C   0  0  0  0  0  0  0  0  0  0  0  0
    0.0000    0.0000    0.0000 S   0  0  0  0  0  0  0  0  0  0  0  0
    3.5403   -1.6495    7.1228 H   0  0  0  0  0  0  0  0  0  0  0  0
    3.6113    0.5355    8.3008 H   0  0  0  0  0  0  0  0  0  0  0  0
    2.2777    2.4656    7.4341 H   0  0  0  0  0  0  0  0  0  0  0  0
    0.9115    2.1877    5.3649 H   0  0  0  0  0  0  0  0  0  0  0  0
    3.0915   -0.0138    3.1043 H   0  0  0  0  0  0  0  0  0  0  0  0
    2.5568    2.2807    2.3508 H   0  0  0  0  0  0  0  0  0  0  0  0
    2.2550    1.6952    0.6918 H   0  0  0  0  0  0  0  0  0  0  0  0
    3.8988    1.6114    1.3822 H   0  0  0  0  0  0  0  0  0  0  0  0
    2.7183   -1.9911    1.6394 H   0  0  0  0  0  0  0  0  0  0  0  0
    2.4727   -0.9191    0.2343 H   0  0  0  0  0  0  0  0  0  0  0  0
    4.0518   -0.9594    1.0569 H   0  0  0  0  0  0  0  0  0  0  0  0
   -2.3176    0.1008   -0.1822 Au  0  0  0  0  0  0  0  0  0  0  0  0
  1  2  1  0  0  0  0
  2  3  1  0  0  0  0
  3 17  1  0  0  0  0
  3  4  2  0  0  0  0
  4 18  1  0  0  0  0
  5  4  1  0  0  0  0
  5 19  1  0  0  0  0
  6  5  2  0  0  0  0
  7  2  2  0  0  0  0
  7  6  1  0  0  0  0
  8  7  1  0  0  0  0
  9  8  2  0  0  0  0
 10  9  1  0  0  0  0
 11 10  2  0  0  0  0
 11 12  1  0  0  0  0
 12  8  1  0  0  0  0
 13 12  1  0  0  0  0
 13 21  1  0  0  0  0
 14 13  1  0  0  0  0
 14 22  1  0  0  0  0
 15 25  1  0  0  0  0
 15 13  1  0  0  0  0
 16 11  1  0  0  0  0
 20  6  1  0  0  0  0
 23 14  1  0  0  0  0
 24 14  1  0  0  0  0
 26 15  1  0  0  0  0
 27 15  1  0  0  0  0
 28 16  1  0  0  0  0
M  END
