315723048.xyz
 OpenBabel07262113493D
Fc1c(F)c(F)c(c(c1F)n1c(N)nnc1S)F
 21 22  0  0  0  0  0  0  0  0999 V2000
    4.5362   -2.5165    0.1507 F   0  0  0  0  0  0  0  0  0  0  0  0
    4.1854   -1.4354    0.8344 C   0  0  0  0  0  0  0  0  0  0  0  0
    5.1328   -0.4423    1.0981 C   0  0  0  0  0  0  0  0  0  0  0  0
    6.3749   -0.5789    0.6583 F   0  0  0  0  0  0  0  0  0  0  0  0
    4.7741    0.6908    1.8336 C   0  0  0  0  0  0  0  0  0  0  0  0
    5.6763    1.6293    2.0919 F   0  0  0  0  0  0  0  0  0  0  0  0
    3.4613    0.8298    2.2815 C   0  0  0  0  0  0  0  0  0  0  0  0
    2.4970   -0.1533    2.0271 C   0  0  0  0  0  0  0  0  0  0  0  0
    2.8808   -1.2976    1.3120 C   0  0  0  0  0  0  0  0  0  0  0  0
    2.0053   -2.2644    1.0860 F   0  0  0  0  0  0  0  0  0  0  0  0
    1.1816    0.0000    2.4945 N   0  0  0  0  0  0  0  0  0  0  0  0
    0.7560    0.0952    3.8184 C   0  0  0  0  0  0  0  0  0  0  0  0
    1.6414    0.0506    4.8756 N   0  0  0  0  0  0  0  0  0  0  0  0
   -0.5458    0.1354    3.8649 N   0  0  0  0  0  0  0  0  0  0  0  0
   -1.0210    0.0673    2.5705 N   0  0  0  0  0  0  0  0  0  0  0  0
   -0.0000   -0.0000    1.7556 C   0  0  0  0  0  0  0  0  0  0  0  0
    0.0000    0.0000    0.0000 S   0  0  0  0  0  0  0  0  0  0  0  0
    3.1273    1.9104    2.9896 F   0  0  0  0  0  0  0  0  0  0  0  0
    1.1397    0.0300    5.7600 H   0  0  0  0  0  0  0  0  0  0  0  0
    2.3259    0.8053    4.8688 H   0  0  0  0  0  0  0  0  0  0  0  0
   -2.2935    0.2659   -0.2166 Au  0  0  0  0  0  0  0  0  0  0  0  0
  1  2  1  0  0  0  0
  2  3  2  0  0  0  0
  2  9  1  0  0  0  0
  3  5  1  0  0  0  0
  4  3  1  0  0  0  0
  5  6  1  0  0  0  0
  5  7  2  0  0  0  0
  7 18  1  0  0  0  0
  8  7  1  0  0  0  0
  8 11  1  0  0  0  0
  9  8  2  0  0  0  0
 10  9  1  0  0  0  0
 11 12  1  0  0  0  0
 12 14  2  0  0  0  0
 12 13  1  0  0  0  0
 13 19  1  0  0  0  0
 15 14  1  0  0  0  0
 16 11  1  0  0  0  0
 16 15  2  0  0  0  0
 17 16  1  0  0  0  0
 20 13  1  0  0  0  0
 21 17  1  0  0  0  0
M  END
