315793018.xyz
 OpenBabel07262113493D
Nc1nc(S)nc(n1)c1ccc(cc1)C(F)(F)F
 25 26  0  0  0  0  0  0  0  0999 V2000
    2.4458   -0.0003    4.2512 N   0  0  0  0  0  0  0  0  0  0  0  0
    1.2407   -0.0000    3.6483 C   0  0  0  0  0  0  0  0  0  0  0  0
    1.2157   -0.0000    2.3036 N   0  0  0  0  0  0  0  0  0  0  0  0
   -0.0000    0.0000    1.7674 C   0  0  0  0  0  0  0  0  0  0  0  0
    0.0000    0.0000    0.0000 S   0  0  0  0  0  0  0  0  0  0  0  0
   -1.1514    0.0001    2.4526 N   0  0  0  0  0  0  0  0  0  0  0  0
   -1.0192    0.0002    3.7869 C   0  0  0  0  0  0  0  0  0  0  0  0
    0.1471    0.0000    4.4330 N   0  0  0  0  0  0  0  0  0  0  0  0
   -2.2636    0.0013    4.5999 C   0  0  0  0  0  0  0  0  0  0  0  0
   -3.5208    0.0002    3.9764 C   0  0  0  0  0  0  0  0  0  0  0  0
   -4.6854    0.0005    4.7400 C   0  0  0  0  0  0  0  0  0  0  0  0
   -4.6036    0.0025    6.1372 C   0  0  0  0  0  0  0  0  0  0  0  0
   -3.3539    0.0003    6.7673 C   0  0  0  0  0  0  0  0  0  0  0  0
   -2.1908   -0.0000    6.0015 C   0  0  0  0  0  0  0  0  0  0  0  0
   -5.8627    0.0608    6.9632 C   0  0  0  0  0  0  0  0  0  0  0  0
   -5.7044   -0.5287    8.1610 F   0  0  0  0  0  0  0  0  0  0  0  0
   -6.2381    1.3332    7.1990 F   0  0  0  0  0  0  0  0  0  0  0  0
   -6.8942   -0.5431    6.3471 F   0  0  0  0  0  0  0  0  0  0  0  0
    2.4963   -0.0003    5.2601 H   0  0  0  0  0  0  0  0  0  0  0  0
    3.2825   -0.0003    3.6845 H   0  0  0  0  0  0  0  0  0  0  0  0
   -2.2629   -0.0031   -0.4404 Au  0  0  0  0  0  0  0  0  0  0  0  0
   -3.5648   -0.0036    2.8875 H   0  0  0  0  0  0  0  0  0  0  0  0
   -5.6625   -0.0076    4.2545 H   0  0  0  0  0  0  0  0  0  0  0  0
   -3.2959   -0.0078    7.8568 H   0  0  0  0  0  0  0  0  0  0  0  0
   -1.2076   -0.0039    6.4717 H   0  0  0  0  0  0  0  0  0  0  0  0
  1 19  1  0  0  0  0
  2  1  1  0  0  0  0
  2  8  2  0  0  0  0
  3  2  2  0  0  0  0
  4  3  2  0  0  0  0
  4  6  2  0  0  0  0
  5  4  1  0  0  0  0
  6  7  2  0  0  0  0
  7  8  2  0  0  0  0
  7  9  1  0  0  0  0
  9 14  1  0  0  0  0
 10  9  2  0  0  0  0
 10 11  1  0  0  0  0
 11 12  2  0  0  0  0
 12 13  1  0  0  0  0
 12 15  1  0  0  0  0
 13 24  1  0  0  0  0
 14 25  1  0  0  0  0
 14 13  2  0  0  0  0
 15 17  1  0  0  0  0
 15 16  1  0  0  0  0
 18 15  1  0  0  0  0
 20  1  1  0  0  0  0
 21  5  1  0  0  0  0
 22 10  1  0  0  0  0
 23 11  1  0  0  0  0
M  END
