315890427.xyz
 OpenBabel07262113493D
CCc1nn(c2c1nc(n2C1(C)CCC1)S)C
 35 37  0  0  1  0  0  0  0  0999 V2000
   -3.1585   -0.9855    5.4451 C   0  0  0  0  0  0  0  0  0  0  0  0
   -2.3068    0.2340    5.8177 C   0  0  0  0  0  0  0  0  0  0  0  0
   -0.9427    0.1976    5.2013 C   0  0  0  0  0  0  0  0  0  0  0  0
    0.1630    0.2491    5.9418 N   0  0  0  0  0  0  0  0  0  0  0  0
    1.2467    0.1931    5.1007 N   0  0  0  0  0  0  0  0  0  0  0  0
    0.8091    0.0946    3.8151 C   0  0  1  0  0  0  0  0  0  0  0  0
   -0.5802    0.1015    3.8263 C   0  0  0  0  0  0  0  0  0  0  0  0
   -1.0698    0.0431    2.5350 N   0  0  0  0  0  0  0  0  0  0  0  0
   -0.0000   -0.0000    1.7712 C   0  0  0  0  0  0  0  0  0  0  0  0
    1.2108   -0.0000    2.4924 N   0  0  0  0  0  0  0  0  0  0  0  0
    2.5671    0.0553    1.9448 C   0  0  0  0  0  0  0  0  0  0  0  0
    2.9517    1.5027    1.6435 C   0  0  0  0  0  0  0  0  0  0  0  0
    2.8650   -0.9160    0.7629 C   0  0  0  0  0  0  0  0  0  0  0  0
    4.1916   -1.3078    1.4531 C   0  0  0  0  0  0  0  0  0  0  0  0
    3.6442   -0.7095    2.7680 C   0  0  0  0  0  0  0  0  0  0  0  0
    0.0000    0.0000    0.0000 S   0  0  0  0  0  0  0  0  0  0  0  0
    2.5691    0.2815    5.6687 C   0  0  0  0  0  0  0  0  0  0  0  0
   -3.2692   -1.0660    4.3523 H   0  0  0  0  0  0  0  0  0  0  0  0
   -4.1651   -0.9169    5.8875 H   0  0  0  0  0  0  0  0  0  0  0  0
   -2.6901   -1.9162    5.8027 H   0  0  0  0  0  0  0  0  0  0  0  0
   -2.1859    0.3098    6.9091 H   0  0  0  0  0  0  0  0  0  0  0  0
   -2.8262    1.1520    5.4889 H   0  0  0  0  0  0  0  0  0  0  0  0
    3.9734    1.5617    1.2386 H   0  0  0  0  0  0  0  0  0  0  0  0
    2.9053    2.1122    2.5599 H   0  0  0  0  0  0  0  0  0  0  0  0
    2.2585    1.9306    0.9035 H   0  0  0  0  0  0  0  0  0  0  0  0
    2.1507   -1.7498    0.7410 H   0  0  0  0  0  0  0  0  0  0  0  0
    2.9143   -0.4651   -0.2377 H   0  0  0  0  0  0  0  0  0  0  0  0
    5.0539   -0.7479    1.0623 H   0  0  0  0  0  0  0  0  0  0  0  0
    4.4473   -2.3764    1.4646 H   0  0  0  0  0  0  0  0  0  0  0  0
    4.3246   -0.0968    3.3753 H   0  0  0  0  0  0  0  0  0  0  0  0
    3.1852   -1.4789    3.4037 H   0  0  0  0  0  0  0  0  0  0  0  0
   -2.2680    0.3775   -0.2532 Au  0  0  0  0  0  0  0  0  0  0  0  0
    2.4455    0.6198    6.7044 H   0  0  0  0  0  0  0  0  0  0  0  0
    3.0906   -0.6894    5.6705 H   0  0  0  0  0  0  0  0  0  0  0  0
    3.1837    1.0125    5.1223 H   0  0  0  0  0  0  0  0  0  0  0  0
  1 20  1  0  0  0  0
  1  2  1  0  0  0  0
  1 19  1  0  0  0  0
  2 21  1  0  0  0  0
  3  2  1  0  0  0  0
  3  4  2  0  0  0  0
  5 17  1  0  0  0  0
  5  4  1  0  0  0  0
  6  7  1  6  0  0  0
  6  5  1  0  0  0  0
  7  3  1  0  0  0  0
  8  7  2  0  0  0  0
  9 10  1  0  0  0  0
  9  8  2  0  0  0  0
 10  6  1  0  0  0  0
 11 10  1  0  0  0  0
 11 15  1  0  0  0  0
 12 11  1  0  0  0  0
 12 24  1  0  0  0  0
 13 14  1  0  0  0  0
 13 11  1  0  0  0  0
 14 29  1  0  0  0  0
 14 15  1  0  0  0  0
 15 30  1  0  0  0  0
 15 31  1  0  0  0  0
 16  9  1  0  0  0  0
 17 34  1  0  0  0  0
 17 33  1  0  0  0  0
 18  1  1  0  0  0  0
 22  2  1  0  0  0  0
 23 12  1  0  0  0  0
 25 12  1  0  0  0  0
 26 13  1  0  0  0  0
 27 13  1  0  0  0  0
 28 14  1  0  0  0  0
 32 16  1  0  0  0  0
 35 17  1  0  0  0  0
M  RAD  1   6   2
M  END
