315940080.xyz
 OpenBabel07262113493D
CC1(CCOCC1)n1c(S)nc2c1cc(C)cc2
 36 38  0  0  1  0  0  0  0  0999 V2000
   -3.0917   -1.4542    2.7314 C   0  0  0  0  0  0  0  0  0  0  0  0
   -2.5895   -0.0613    2.3235 C   0  0  0  0  0  0  0  0  0  0  0  0
   -2.9228    0.1649    0.8377 C   0  0  0  0  0  0  0  0  0  0  0  0
   -2.9329    1.6395    0.4594 C   0  0  0  0  0  0  0  0  0  0  0  0
   -3.9628    2.3469    1.1382 O   0  0  0  0  0  0  0  0  0  0  0  0
   -4.4223    1.7387    2.3271 C   0  0  0  0  0  0  0  0  0  0  0  0
   -3.3019    1.0786    3.1235 C   0  0  0  0  0  0  0  0  0  0  0  0
   -1.1240    0.0064    2.6062 N   0  0  0  0  0  0  0  0  0  0  0  0
   -0.0000    0.0000    1.7738 C   0  0  0  0  0  0  0  0  0  0  0  0
    0.0000    0.0000    0.0000 S   0  0  0  0  0  0  0  0  0  0  0  0
    1.1324    0.0000    2.4459 N   0  0  0  0  0  0  0  0  0  0  0  0
    0.7926   -0.0105    3.7807 C   0  0  0  0  0  0  0  0  0  0  0  0
   -0.6149   -0.0161    3.9154 C   0  0  2  0  0  0  0  0  0  0  0  0
   -1.2158   -0.0504    5.1822 C   0  0  0  0  0  0  0  0  0  0  0  0
   -0.3946   -0.0685    6.3151 C   0  0  0  0  0  0  0  0  0  0  0  0
   -0.9994   -0.1030    7.6975 C   0  0  0  0  0  0  0  0  0  0  0  0
    1.0121   -0.0521    6.1663 C   0  0  0  0  0  0  0  0  0  0  0  0
    1.6160   -0.0248    4.9148 C   0  0  0  0  0  0  0  0  0  0  0  0
   -4.1872   -1.5026    2.6354 H   0  0  0  0  0  0  0  0  0  0  0  0
   -2.6532   -2.2220    2.0757 H   0  0  0  0  0  0  0  0  0  0  0  0
   -2.8246   -1.6970    3.7683 H   0  0  0  0  0  0  0  0  0  0  0  0
   -2.2591   -0.4184    0.1866 H   0  0  0  0  0  0  0  0  0  0  0  0
   -3.9290   -0.2456    0.6643 H   0  0  0  0  0  0  0  0  0  0  0  0
   -1.9493    2.0945    0.6791 H   0  0  0  0  0  0  0  0  0  0  0  0
   -3.1056    1.7563   -0.6224 H   0  0  0  0  0  0  0  0  0  0  0  0
   -5.2210    0.9991    2.1107 H   0  0  0  0  0  0  0  0  0  0  0  0
   -4.8862    2.5350    2.9297 H   0  0  0  0  0  0  0  0  0  0  0  0
   -3.7191    0.6955    4.0655 H   0  0  0  0  0  0  0  0  0  0  0  0
   -2.5618    1.8482    3.3858 H   0  0  0  0  0  0  0  0  0  0  0  0
    2.3110    0.0531   -0.2268 Au  0  0  0  0  0  0  0  0  0  0  0  0
   -2.2953   -0.0655    5.3136 H   0  0  0  0  0  0  0  0  0  0  0  0
   -0.7076    0.7839    8.2848 H   0  0  0  0  0  0  0  0  0  0  0  0
   -0.6590   -0.9870    8.2624 H   0  0  0  0  0  0  0  0  0  0  0  0
   -2.0984   -0.1322    7.6593 H   0  0  0  0  0  0  0  0  0  0  0  0
    1.6358   -0.0651    7.0642 H   0  0  0  0  0  0  0  0  0  0  0  0
    2.7016   -0.0182    4.8009 H   0  0  0  0  0  0  0  0  0  0  0  0
  1 21  1  0  0  0  0
  2  8  1  0  0  0  0
  2  1  1  0  0  0  0
  2  7  1  0  0  0  0
  3  2  1  0  0  0  0
  4 24  1  0  0  0  0
  4  3  1  0  0  0  0
  4  5  1  0  0  0  0
  5  6  1  0  0  0  0
  6 27  1  0  0  0  0
  6  7  1  0  0  0  0
  7 29  1  0  0  0  0
  7 28  1  0  0  0  0
  8 13  1  0  0  0  0
  9 11  2  0  0  0  0
  9  8  1  0  0  0  0
 10  9  1  0  0  0  0
 11 12  2  0  0  0  0
 12 18  1  0  0  0  0
 13 12  1  6  0  0  0
 13 14  1  0  0  0  0
 14 31  1  0  0  0  0
 14 15  2  0  0  0  0
 15 16  1  0  0  0  0
 16 33  1  0  0  0  0
 16 32  1  0  0  0  0
 17 15  1  0  0  0  0
 17 35  1  0  0  0  0
 18 17  2  0  0  0  0
 19  1  1  0  0  0  0
 20  1  1  0  0  0  0
 22  3  1  0  0  0  0
 23  3  1  0  0  0  0
 25  4  1  0  0  0  0
 26  6  1  0  0  0  0
 30 10  1  0  0  0  0
 34 16  1  0  0  0  0
 36 18  1  0  0  0  0
M  RAD  1  13   2
M  END
