316152453.xyz
 OpenBabel07262113493D
N#Cc1ccc2c(c1)nc(n2C)S
 20 21  0  0  0  0  0  0  0  0999 V2000
   -1.8385   -0.2807    8.4815 N   0  0  0  0  0  0  0  0  0  0  0  0
   -1.2889   -0.2323    7.4597 C   0  0  0  0  0  0  0  0  0  0  0  0
   -0.6004   -0.1715    6.2021 C   0  0  0  0  0  0  0  0  0  0  0  0
    0.8228   -0.1244    6.1981 C   0  0  0  0  0  0  0  0  0  0  0  0
    1.5423   -0.0627    5.0122 C   0  0  0  0  0  0  0  0  0  0  0  0
    0.8053   -0.0498    3.8203 C   0  0  0  0  0  0  0  0  0  0  0  0
   -0.6190   -0.0937    3.8042 C   0  0  0  0  0  0  0  0  0  0  0  0
   -1.3320   -0.1576    5.0077 C   0  0  0  0  0  0  0  0  0  0  0  0
   -1.0761   -0.0571    2.5086 N   0  0  0  0  0  0  0  0  0  0  0  0
   -0.0000   -0.0000    1.7536 C   0  0  0  0  0  0  0  0  0  0  0  0
    1.1828   -0.0000    2.5007 N   0  0  0  0  0  0  0  0  0  0  0  0
    2.5425    0.0750    2.0121 C   0  0  0  0  0  0  0  0  0  0  0  0
    0.0000    0.0000    0.0000 S   0  0  0  0  0  0  0  0  0  0  0  0
    1.3482   -0.1364    7.1542 H   0  0  0  0  0  0  0  0  0  0  0  0
    2.6327   -0.0243    5.0188 H   0  0  0  0  0  0  0  0  0  0  0  0
   -2.4217   -0.1933    5.0077 H   0  0  0  0  0  0  0  0  0  0  0  0
    2.9771    1.0697    2.2035 H   0  0  0  0  0  0  0  0  0  0  0  0
    2.5358   -0.1094    0.9312 H   0  0  0  0  0  0  0  0  0  0  0  0
    3.1625   -0.6879    2.5064 H   0  0  0  0  0  0  0  0  0  0  0  0
    0.1996    2.2584   -0.4563 Au  0  0  0  0  0  0  0  0  0  0  0  0
  2  1  3  0  0  0  0
  3  2  1  0  0  0  0
  4  3  2  0  0  0  0
  4 14  1  0  0  0  0
  5 15  1  0  0  0  0
  5  4  1  0  0  0  0
  6  5  2  0  0  0  0
  7  6  1  0  0  0  0
  7  8  1  0  0  0  0
  8 16  1  0  0  0  0
  8  3  1  0  0  0  0
  9  7  2  0  0  0  0
 10 11  1  0  0  0  0
 10  9  2  0  0  0  0
 11  6  1  0  0  0  0
 12 17  1  0  0  0  0
 12 11  1  0  0  0  0
 12 19  1  0  0  0  0
 13 10  1  0  0  0  0
 18 12  1  0  0  0  0
 20 13  1  0  0  0  0
M  RAD  1   8   2
M  END
