316241078.xyz
 OpenBabel07262113493D
CCc1cccc(c1CCl)S
 22 22  0  0  0  0  0  0  0  0999 V2000
   -2.6793    1.2590    5.3605 C   0  0  0  0  0  0  0  0  0  0  0  0
   -2.2869   -0.1511    4.8942 C   0  0  0  0  0  0  0  0  0  0  0  0
   -1.0816   -0.1480    3.9779 C   0  0  0  0  0  0  0  0  0  0  0  0
    0.1912   -0.1603    4.5696 C   0  0  0  0  0  0  0  0  0  0  0  0
    1.3503   -0.0924    3.8001 C   0  0  0  0  0  0  0  0  0  0  0  0
    1.2561    0.0000    2.4130 C   0  0  0  0  0  0  0  0  0  0  0  0
   -0.0000    0.0000    1.7886 C   0  0  0  0  0  0  0  0  0  0  0  0
   -1.1841   -0.0832    2.5695 C   0  0  0  0  0  0  0  0  0  0  0  0
   -2.5165   -0.1099    1.8931 C   0  0  0  0  0  0  0  0  0  0  0  0
   -3.2729    1.5667    1.7499 Cl  0  0  0  0  0  0  0  0  0  0  0  0
    0.0000    0.0000    0.0000 S   0  0  0  0  0  0  0  0  0  0  0  0
   -1.8422    1.7434    5.8875 H   0  0  0  0  0  0  0  0  0  0  0  0
   -2.9511    1.8910    4.5032 H   0  0  0  0  0  0  0  0  0  0  0  0
   -3.5388    1.2191    6.0484 H   0  0  0  0  0  0  0  0  0  0  0  0
   -3.1524   -0.6265    4.4096 H   0  0  0  0  0  0  0  0  0  0  0  0
   -2.0530   -0.7723    5.7741 H   0  0  0  0  0  0  0  0  0  0  0  0
    0.2655   -0.2210    5.6587 H   0  0  0  0  0  0  0  0  0  0  0  0
    2.3312   -0.1009    4.2813 H   0  0  0  0  0  0  0  0  0  0  0  0
    2.1518    0.0750    1.7947 H   0  0  0  0  0  0  0  0  0  0  0  0
   -2.4253   -0.4701    0.8635 H   0  0  0  0  0  0  0  0  0  0  0  0
   -3.2615   -0.6988    2.4354 H   0  0  0  0  0  0  0  0  0  0  0  0
   -0.9910    2.0380   -0.4705 Au  0  0  0  0  0  0  0  0  0  0  0  0
  1 12  1  0  0  0  0
  1 14  1  0  0  0  0
  2  1  1  0  0  0  0
  2 16  1  0  0  0  0
  3  4  1  0  0  0  0
  3  2  1  0  0  0  0
  4 17  1  0  0  0  0
  5 18  1  0  0  0  0
  5  4  2  0  0  0  0
  6  5  1  0  0  0  0
  7  6  2  0  0  0  0
  7  8  1  0  0  0  0
  8  3  2  0  0  0  0
  9 21  1  0  0  0  0
  9  8  1  0  0  0  0
 10  9  1  0  0  0  0
 11  7  1  0  0  0  0
 13  1  1  0  0  0  0
 15  2  1  0  0  0  0
 19  6  1  0  0  0  0
 20  9  1  0  0  0  0
 22 11  1  0  0  0  0
M  END
