316501681.xyz
 OpenBabel07262113493D
CN1CCN(CC1)C(=O)N1CCN(CC1)C(=O)c1ccc2n(c1)c(S)nn2
 50 53  0  0  0  0  0  0  0  0999 V2000
   11.1020    4.8194    8.3234 C   0  0  0  0  0  0  0  0  0  0  0  0
   10.7663    4.1634    7.0838 N   0  0  0  0  0  0  0  0  0  0  0  0
   11.1067    2.7597    7.0111 C   0  0  0  0  0  0  0  0  0  0  0  0
   10.2618    2.0968    5.9076 C   0  0  0  0  0  0  0  0  0  0  0  0
   10.1064    3.0046    4.7654 N   0  0  0  0  0  0  0  0  0  0  0  0
   11.1675    3.9968    4.6637 C   0  0  0  0  0  0  0  0  0  0  0  0
   11.2083    4.9031    5.9055 C   0  0  0  0  0  0  0  0  0  0  0  0
    8.8493    3.4257    4.3506 C   0  0  0  0  0  0  0  0  0  0  0  0
    8.6175    4.5718    3.9911 O   0  0  0  0  0  0  0  0  0  0  0  0
    7.8592    2.4542    4.3512 N   0  0  0  0  0  0  0  0  0  0  0  0
    6.5110    2.9249    4.0495 C   0  0  0  0  0  0  0  0  0  0  0  0
    5.5084    1.8025    4.2814 C   0  0  0  0  0  0  0  0  0  0  0  0
    5.8014    0.6668    3.4023 N   0  0  0  0  0  0  0  0  0  0  0  0
    7.1955    0.5184    2.9822 C   0  0  0  0  0  0  0  0  0  0  0  0
    8.1323    1.0452    4.0612 C   0  0  0  0  0  0  0  0  0  0  0  0
    4.8697   -0.0358    2.6812 C   0  0  0  0  0  0  0  0  0  0  0  0
    5.1871   -0.7051    1.7075 O   0  0  0  0  0  0  0  0  0  0  0  0
    3.4357    0.0244    3.1318 C   0  0  0  0  0  0  0  0  0  0  0  0
    3.0284    0.0069    4.5123 C   0  0  0  0  0  0  0  0  0  0  0  0
    1.7031   -0.0103    4.8592 C   0  0  0  0  0  0  0  0  0  0  0  0
    0.7204    0.0016    3.8346 C   0  0  0  0  0  0  0  0  0  0  0  0
    1.1605    0.0000    2.4952 N   0  0  0  0  0  0  0  0  0  0  0  0
    2.4858   -0.0044    2.1457 C   0  0  0  0  0  0  0  0  0  0  0  0
   -0.0000    0.0000    1.7524 C   0  0  0  0  0  0  0  0  0  0  0  0
    0.0000    0.0000    0.0000 S   0  0  0  0  0  0  0  0  0  0  0  0
   -1.0367    0.0036    2.5763 N   0  0  0  0  0  0  0  0  0  0  0  0
   -0.5989    0.0046    3.8622 N   0  0  0  0  0  0  0  0  0  0  0  0
   10.7115    5.8499    8.3158 H   0  0  0  0  0  0  0  0  0  0  0  0
   12.1999    4.8816    8.5095 H   0  0  0  0  0  0  0  0  0  0  0  0
   10.6435    4.2907    9.1744 H   0  0  0  0  0  0  0  0  0  0  0  0
   12.1943    2.5863    6.8356 H   0  0  0  0  0  0  0  0  0  0  0  0
   10.8722    2.2763    7.9722 H   0  0  0  0  0  0  0  0  0  0  0  0
   10.7196    1.1364    5.6073 H   0  0  0  0  0  0  0  0  0  0  0  0
    9.2636    1.8836    6.3110 H   0  0  0  0  0  0  0  0  0  0  0  0
   12.1209    3.4572    4.5474 H   0  0  0  0  0  0  0  0  0  0  0  0
   11.0061    4.5979    3.7621 H   0  0  0  0  0  0  0  0  0  0  0  0
   10.5436    5.7695    5.7606 H   0  0  0  0  0  0  0  0  0  0  0  0
   12.2464    5.2907    6.0274 H   0  0  0  0  0  0  0  0  0  0  0  0
    6.4365    3.2946    3.0109 H   0  0  0  0  0  0  0  0  0  0  0  0
    6.2763    3.7782    4.7009 H   0  0  0  0  0  0  0  0  0  0  0  0
    5.5430    1.5033    5.3445 H   0  0  0  0  0  0  0  0  0  0  0  0
    4.4976    2.1770    4.0763 H   0  0  0  0  0  0  0  0  0  0  0  0
    7.3710    1.0478    2.0289 H   0  0  0  0  0  0  0  0  0  0  0  0
    7.3910   -0.5451    2.7885 H   0  0  0  0  0  0  0  0  0  0  0  0
    9.1682    0.9478    3.7103 H   0  0  0  0  0  0  0  0  0  0  0  0
    8.0320    0.4190    4.9662 H   0  0  0  0  0  0  0  0  0  0  0  0
    3.7913   -0.0271    5.2900 H   0  0  0  0  0  0  0  0  0  0  0  0
    1.3679   -0.0429    5.8960 H   0  0  0  0  0  0  0  0  0  0  0  0
    2.7337   -0.0444    1.0851 H   0  0  0  0  0  0  0  0  0  0  0  0
   -2.3086    0.0532   -0.2235 Au  0  0  0  0  0  0  0  0  0  0  0  0
  1 29  1  0  0  0  0
  1 30  1  0  0  0  0
  2  1  1  0  0  0  0
  3  2  1  0  0  0  0
  3 32  1  0  0  0  0
  4 34  1  0  0  0  0
  4  3  1  0  0  0  0
  5  4  1  0  0  0  0
  6  5  1  0  0  0  0
  6  7  1  0  0  0  0
  7 38  1  0  0  0  0
  7  2  1  0  0  0  0
  8 10  1  0  0  0  0
  8  5  1  0  0  0  0
  9  8  2  0  0  0  0
 11 12  1  0  0  0  0
 11 10  1  0  0  0  0
 11 40  1  0  0  0  0
 12 41  1  0  0  0  0
 13 12  1  0  0  0  0
 14 13  1  0  0  0  0
 14 15  1  0  0  0  0
 15 10  1  0  0  0  0
 15 46  1  0  0  0  0
 16 18  1  0  0  0  0
 16 13  1  0  0  0  0
 17 16  2  0  0  0  0
 18 19  1  0  0  0  0
 19 20  2  0  0  0  0
 19 47  1  0  0  0  0
 20 48  1  0  0  0  0
 21 27  2  0  0  0  0
 21 20  1  0  0  0  0
 22 21  1  0  0  0  0
 23 22  1  0  0  0  0
 23 18  2  0  0  0  0
 24 22  1  0  0  0  0
 24 26  2  0  0  0  0
 25 24  1  0  0  0  0
 26 27  1  0  0  0  0
 28  1  1  0  0  0  0
 31  3  1  0  0  0  0
 33  4  1  0  0  0  0
 35  6  1  0  0  0  0
 36  6  1  0  0  0  0
 37  7  1  0  0  0  0
 39 11  1  0  0  0  0
 42 12  1  0  0  0  0
 43 14  1  0  0  0  0
 44 14  1  0  0  0  0
 45 15  1  0  0  0  0
 49 23  1  0  0  0  0
 50 25  1  0  0  0  0
M  END
