317523644.xyz
 OpenBabel07262113493D
CCc1ccc(c(c1F)S)C(=O)O
 22 22  0  0  0  0  0  0  0  0999 V2000
   -3.3061   -1.9057    4.1982 C   0  0  0  0  0  0  0  0  0  0  0  0
   -2.7441   -0.4946    4.4222 C   0  0  0  0  0  0  0  0  0  0  0  0
   -1.3770   -0.3079    3.8134 C   0  0  0  0  0  0  0  0  0  0  0  0
   -0.2050   -0.3212    4.5757 C   0  0  0  0  0  0  0  0  0  0  0  0
    1.0451   -0.1758    3.9756 C   0  0  0  0  0  0  0  0  0  0  0  0
    1.1640   -0.0000    2.5908 C   0  0  0  0  0  0  0  0  0  0  0  0
    0.0000   -0.0000    1.7794 C   0  0  0  0  0  0  0  0  0  0  0  0
   -1.2364   -0.1530    2.4286 C   0  0  0  0  0  0  0  0  0  0  0  0
   -2.3588   -0.1508    1.6985 F   0  0  0  0  0  0  0  0  0  0  0  0
    0.0000    0.0000    0.0000 S   0  0  0  0  0  0  0  0  0  0  0  0
    2.5265    0.2489    2.0309 C   0  0  0  0  0  0  0  0  0  0  0  0
    2.8009    0.9825    1.1114 O   0  0  0  0  0  0  0  0  0  0  0  0
    3.4821   -0.4155    2.7169 O   0  0  0  0  0  0  0  0  0  0  0  0
   -2.6446   -2.6685    4.6381 H   0  0  0  0  0  0  0  0  0  0  0  0
   -3.4049   -2.1205    3.1236 H   0  0  0  0  0  0  0  0  0  0  0  0
   -4.3009   -2.0084    4.6590 H   0  0  0  0  0  0  0  0  0  0  0  0
   -3.4370    0.2446    3.9891 H   0  0  0  0  0  0  0  0  0  0  0  0
   -2.6824   -0.2829    5.5014 H   0  0  0  0  0  0  0  0  0  0  0  0
   -0.2771   -0.4453    5.6589 H   0  0  0  0  0  0  0  0  0  0  0  0
    1.9490   -0.1884    4.5843 H   0  0  0  0  0  0  0  0  0  0  0  0
    0.4378    2.2138   -0.4761 Au  0  0  0  0  0  0  0  0  0  0  0  0
    4.3307   -0.1507    2.3224 H   0  0  0  0  0  0  0  0  0  0  0  0
  1  2  1  0  0  0  0
  1 14  1  0  0  0  0
  1 16  1  0  0  0  0
  2 18  1  0  0  0  0
  3  2  1  0  0  0  0
  3  4  2  0  0  0  0
  4 19  1  0  0  0  0
  5  4  1  0  0  0  0
  5 20  1  0  0  0  0
  6  5  2  0  0  0  0
  7  8  2  0  0  0  0
  7  6  1  0  0  0  0
  8  3  1  0  0  0  0
  9  8  1  0  0  0  0
 10  7  1  0  0  0  0
 11  6  1  0  0  0  0
 11 13  1  0  0  0  0
 12 11  2  0  0  0  0
 15  1  1  0  0  0  0
 17  2  1  0  0  0  0
 21 10  1  0  0  0  0
 22 13  1  0  0  0  0
M  END
