317591490.xyz
 OpenBabel07262113493D
N#CCc1cc(C#N)c(c(c1)S)F
 18 18  0  0  0  0  0  0  0  0999 V2000
   -4.7172   -0.2146    3.0941 N   0  0  0  0  0  0  0  0  0  0  0  0
   -3.7798   -0.2803    3.7705 C   0  0  0  0  0  0  0  0  0  0  0  0
   -2.5860   -0.3620    4.6102 C   0  0  0  0  0  0  0  0  0  0  0  0
   -1.2722   -0.2255    3.8534 C   0  0  0  0  0  0  0  0  0  0  0  0
   -0.0808   -0.2116    4.5830 C   0  0  0  0  0  0  0  0  0  0  0  0
    1.1558   -0.0905    3.9271 C   0  0  0  0  0  0  0  0  0  0  0  0
    2.3810   -0.0637    4.6688 C   0  0  0  0  0  0  0  0  0  0  0  0
    3.3619   -0.0397    5.2880 N   0  0  0  0  0  0  0  0  0  0  0  0
    1.1816    0.0000    2.5274 C   0  0  0  0  0  0  0  0  0  0  0  0
    0.0000   -0.0000    1.7743 C   0  0  0  0  0  0  0  0  0  0  0  0
   -1.2216   -0.1059    2.4613 C   0  0  0  0  0  0  0  0  0  0  0  0
    0.0000    0.0000    0.0000 S   0  0  0  0  0  0  0  0  0  0  0  0
    2.3591    0.1198    1.9221 F   0  0  0  0  0  0  0  0  0  0  0  0
   -2.6571    0.4207    5.3842 H   0  0  0  0  0  0  0  0  0  0  0  0
   -2.6113   -1.3269    5.1452 H   0  0  0  0  0  0  0  0  0  0  0  0
   -0.0917   -0.2885    5.6719 H   0  0  0  0  0  0  0  0  0  0  0  0
   -2.1441   -0.0907    1.8779 H   0  0  0  0  0  0  0  0  0  0  0  0
    1.1543    1.9233   -0.5259 Au  0  0  0  0  0  0  0  0  0  0  0  0
  1  2  3  0  0  0  0
  2  3  1  0  0  0  0
  3 15  1  0  0  0  0
  3 14  1  0  0  0  0
  4  5  2  0  0  0  0
  4  3  1  0  0  0  0
  5 16  1  0  0  0  0
  6  5  1  0  0  0  0
  6  7  1  0  0  0  0
  7  8  3  0  0  0  0
  9  6  2  0  0  0  0
 10 11  2  0  0  0  0
 10  9  1  0  0  0  0
 11  4  1  0  0  0  0
 12 10  1  0  0  0  0
 13  9  1  0  0  0  0
 17 11  1  0  0  0  0
 18 12  1  0  0  0  0
M  END
