317519858.xyz
 OpenBabel07262113493D
CCOc1cc(S)cc(c1CC)Br
 26 26  0  0  0  0  0  0  0  0999 V2000
    4.6718    0.0295    5.0764 C   0  0  0  0  0  0  0  0  0  0  0  0
    3.6097    0.0295    3.9965 C   0  0  0  0  0  0  0  0  0  0  0  0
    2.3423   -0.0556    4.6306 O   0  0  0  0  0  0  0  0  0  0  0  0
    1.2130   -0.0720    3.8805 C   0  0  0  0  0  0  0  0  0  0  0  0
    1.2163   -0.0000    2.4854 C   0  0  0  0  0  0  0  0  0  0  0  0
    0.0000   -0.0000    1.7822 C   0  0  0  0  0  0  0  0  0  0  0  0
    0.0000    0.0000    0.0000 S   0  0  0  0  0  0  0  0  0  0  0  0
   -1.2115   -0.0773    2.4765 C   0  0  0  0  0  0  0  0  0  0  0  0
   -1.1862   -0.1557    3.8721 C   0  0  0  0  0  0  0  0  0  0  0  0
    0.0011   -0.1697    4.6140 C   0  0  0  0  0  0  0  0  0  0  0  0
    0.0539   -0.2270    6.1187 C   0  0  0  0  0  0  0  0  0  0  0  0
    0.0904    1.1701    6.7543 C   0  0  0  0  0  0  0  0  0  0  0  0
   -2.8777   -0.2288    4.7686 Br  0  0  0  0  0  0  0  0  0  0  0  0
    4.6182   -0.8935    5.6732 H   0  0  0  0  0  0  0  0  0  0  0  0
    4.5367    0.8866    5.7533 H   0  0  0  0  0  0  0  0  0  0  0  0
    5.6731    0.0956    4.6243 H   0  0  0  0  0  0  0  0  0  0  0  0
    3.7428   -0.8269    3.3100 H   0  0  0  0  0  0  0  0  0  0  0  0
    3.6626    0.9520    3.3892 H   0  0  0  0  0  0  0  0  0  0  0  0
    2.1441    0.0633    1.9212 H   0  0  0  0  0  0  0  0  0  0  0  0
    0.0813    2.2445   -0.5147 Au  0  0  0  0  0  0  0  0  0  0  0  0
   -2.1564   -0.0694    1.9351 H   0  0  0  0  0  0  0  0  0  0  0  0
   -0.8199   -0.7802    6.4907 H   0  0  0  0  0  0  0  0  0  0  0  0
    0.9530   -0.7855    6.4155 H   0  0  0  0  0  0  0  0  0  0  0  0
   -0.8099    1.7454    6.4889 H   0  0  0  0  0  0  0  0  0  0  0  0
    0.1386    1.0987    7.8524 H   0  0  0  0  0  0  0  0  0  0  0  0
    0.9718    1.7314    6.4088 H   0  0  0  0  0  0  0  0  0  0  0  0
  1 14  1  0  0  0  0
  1 15  1  0  0  0  0
  2  3  1  0  0  0  0
  2  1  1  0  0  0  0
  4 10  1  0  0  0  0
  4  3  1  0  0  0  0
  5  4  2  0  0  0  0
  6  8  2  0  0  0  0
  6  5  1  0  0  0  0
  7  6  1  0  0  0  0
  8  9  1  0  0  0  0
  9 10  2  0  0  0  0
  9 13  1  0  0  0  0
 10 11  1  0  0  0  0
 11 23  1  0  0  0  0
 11 22  1  0  0  0  0
 11 12  1  0  0  0  0
 12 25  1  0  0  0  0
 16  1  1  0  0  0  0
 17  2  1  0  0  0  0
 18  2  1  0  0  0  0
 19  5  1  0  0  0  0
 20  7  1  0  0  0  0
 21  8  1  0  0  0  0
 24 12  1  0  0  0  0
 26 12  1  0  0  0  0
M  END
