317572306.xyz
 OpenBabel07262113493D
CCc1c(S)cc(cc1C(=O)Cl)OC
 25 25  0  0  0  0  0  0  0  0999 V2000
    3.0906    1.2491    1.3793 C   0  0  0  0  0  0  0  0  0  0  0  0
    2.5372   -0.1095    1.8312 C   0  0  0  0  0  0  0  0  0  0  0  0
    1.2040   -0.0000    2.5316 C   0  0  0  0  0  0  0  0  0  0  0  0
   -0.0000   -0.0000    1.7888 C   0  0  0  0  0  0  0  0  0  0  0  0
    0.0000    0.0000    0.0000 S   0  0  0  0  0  0  0  0  0  0  0  0
   -1.2581    0.0912    2.4111 C   0  0  0  0  0  0  0  0  0  0  0  0
   -1.3557    0.1813    3.8009 C   0  0  0  0  0  0  0  0  0  0  0  0
   -0.1812    0.1721    4.5601 C   0  0  0  0  0  0  0  0  0  0  0  0
    1.0735    0.0974    3.9455 C   0  0  0  0  0  0  0  0  0  0  0  0
    2.2938    0.1701    4.7995 C   0  0  0  0  0  0  0  0  0  0  0  0
    3.3701    0.5669    4.4872 O   0  0  0  0  0  0  0  0  0  0  0  0
    2.0571   -0.4477    6.4981 Cl  0  0  0  0  0  0  0  0  0  0  0  0
   -2.5170    0.2762    4.4884 O   0  0  0  0  0  0  0  0  0  0  0  0
   -3.7326    0.2845    3.7720 C   0  0  0  0  0  0  0  0  0  0  0  0
    4.0543    1.1172    0.8630 H   0  0  0  0  0  0  0  0  0  0  0  0
    2.3947    1.7394    0.6819 H   0  0  0  0  0  0  0  0  0  0  0  0
    3.2543    1.9091    2.2427 H   0  0  0  0  0  0  0  0  0  0  0  0
    3.2694   -0.5955    2.4879 H   0  0  0  0  0  0  0  0  0  0  0  0
    2.4087   -0.7541    0.9503 H   0  0  0  0  0  0  0  0  0  0  0  0
    0.0922   -2.2453   -0.5142 Au  0  0  0  0  0  0  0  0  0  0  0  0
   -2.1422    0.0875    1.7764 H   0  0  0  0  0  0  0  0  0  0  0  0
   -0.2631    0.2342    5.6435 H   0  0  0  0  0  0  0  0  0  0  0  0
   -3.8726   -0.6466    3.1943 H   0  0  0  0  0  0  0  0  0  0  0  0
   -4.5339    0.3671    4.5175 H   0  0  0  0  0  0  0  0  0  0  0  0
   -3.7933    1.1441    3.0810 H   0  0  0  0  0  0  0  0  0  0  0  0
  1  2  1  0  0  0  0
  1 17  1  0  0  0  0
  2 18  1  0  0  0  0
  2  3  1  0  0  0  0
  3  9  2  0  0  0  0
  4  6  2  0  0  0  0
  4  3  1  0  0  0  0
  5  4  1  0  0  0  0
  6  7  1  0  0  0  0
  7 13  1  0  0  0  0
  7  8  2  0  0  0  0
  8 22  1  0  0  0  0
  9  8  1  0  0  0  0
  9 10  1  0  0  0  0
 10 12  1  0  0  0  0
 11 10  2  0  0  0  0
 14 13  1  0  0  0  0
 14 24  1  0  0  0  0
 15  1  1  0  0  0  0
 16  1  1  0  0  0  0
 19  2  1  0  0  0  0
 20  5  1  0  0  0  0
 21  6  1  0  0  0  0
 23 14  1  0  0  0  0
 25 14  1  0  0  0  0
M  END
