317551962.xyz
 OpenBabel07262113493D
CCc1ccc(c(c1S)OC(F)(F)F)Cl
 23 23  0  0  0  0  0  0  0  0999 V2000
   -2.9325    1.4972    1.2479 C   0  0  0  0  0  0  0  0  0  0  0  0
   -2.5560    0.1026    1.7667 C   0  0  0  0  0  0  0  0  0  0  0  0
   -1.2274    0.0770    2.4814 C   0  0  0  0  0  0  0  0  0  0  0  0
   -1.1891    0.1671    3.8799 C   0  0  0  0  0  0  0  0  0  0  0  0
    0.0080    0.1545    4.5899 C   0  0  0  0  0  0  0  0  0  0  0  0
    1.2172    0.0632    3.8971 C   0  0  0  0  0  0  0  0  0  0  0  0
    1.2138    0.0000    2.5003 C   0  0  0  0  0  0  0  0  0  0  0  0
   -0.0000    0.0000    1.7793 C   0  0  0  0  0  0  0  0  0  0  0  0
    0.0000    0.0000    0.0000 S   0  0  0  0  0  0  0  0  0  0  0  0
    2.4081   -0.1805    1.8297 O   0  0  0  0  0  0  0  0  0  0  0  0
    3.1242    0.8739    1.3500 C   0  0  0  0  0  0  0  0  0  0  0  0
    2.3987    1.9884    1.2644 F   0  0  0  0  0  0  0  0  0  0  0  0
    4.1786    1.1298    2.1298 F   0  0  0  0  0  0  0  0  0  0  0  0
    3.5864    0.5588    0.1414 F   0  0  0  0  0  0  0  0  0  0  0  0
    2.7185    0.0220    4.7742 Cl  0  0  0  0  0  0  0  0  0  0  0  0
   -2.9810    2.2274    2.0712 H   0  0  0  0  0  0  0  0  0  0  0  0
   -3.9139    1.4770    0.7485 H   0  0  0  0  0  0  0  0  0  0  0  0
   -2.1903    1.8591    0.5196 H   0  0  0  0  0  0  0  0  0  0  0  0
   -3.3342   -0.2520    2.4613 H   0  0  0  0  0  0  0  0  0  0  0  0
   -2.5237   -0.6016    0.9210 H   0  0  0  0  0  0  0  0  0  0  0  0
   -2.1314    0.2325    4.4293 H   0  0  0  0  0  0  0  0  0  0  0  0
    0.0209    0.2079    5.6789 H   0  0  0  0  0  0  0  0  0  0  0  0
    1.1292   -1.9423   -0.5274 Au  0  0  0  0  0  0  0  0  0  0  0  0
  1  2  1  0  0  0  0
  1 16  1  0  0  0  0
  2 19  1  0  0  0  0
  2  3  1  0  0  0  0
  3  4  1  0  0  0  0
  4 21  1  0  0  0  0
  4  5  2  0  0  0  0
  5 22  1  0  0  0  0
  6  5  1  0  0  0  0
  6 15  1  0  0  0  0
  7  6  2  0  0  0  0
  8  3  2  0  0  0  0
  8  7  1  0  0  0  0
  9  8  1  0  0  0  0
 10  7  1  0  0  0  0
 11 10  1  0  0  0  0
 11 13  1  0  0  0  0
 12 11  1  0  0  0  0
 14 11  1  0  0  0  0
 17  1  1  0  0  0  0
 18  1  1  0  0  0  0
 20  2  1  0  0  0  0
 23  9  1  0  0  0  0
M  END
