317580539.xyz
 OpenBabel07262113493D
COC(=O)c1cc(Br)cc(c1S)CC
 25 25  0  0  0  0  0  0  0  0999 V2000
   -4.7266    0.9343    1.8721 C   0  0  0  0  0  0  0  0  0  0  0  0
   -3.3841    0.9822    2.3571 O   0  0  0  0  0  0  0  0  0  0  0  0
   -2.5547    0.0337    1.8902 C   0  0  0  0  0  0  0  0  0  0  0  0
   -2.9040   -0.8148    1.1047 O   0  0  0  0  0  0  0  0  0  0  0  0
   -1.1998    0.1356    2.5255 C   0  0  0  0  0  0  0  0  0  0  0  0
   -1.1660    0.3171    3.9121 C   0  0  0  0  0  0  0  0  0  0  0  0
    0.0613    0.3221    4.5722 C   0  0  0  0  0  0  0  0  0  0  0  0
    0.1099    0.5523    6.4610 Br  0  0  0  0  0  0  0  0  0  0  0  0
    1.2500    0.1600    3.8648 C   0  0  0  0  0  0  0  0  0  0  0  0
    1.2403    0.0000    2.4720 C   0  0  0  0  0  0  0  0  0  0  0  0
    0.0000    0.0000    1.7854 C   0  0  0  0  0  0  0  0  0  0  0  0
    0.0000    0.0000    0.0000 S   0  0  0  0  0  0  0  0  0  0  0  0
    2.5615   -0.1292    1.7520 C   0  0  0  0  0  0  0  0  0  0  0  0
    3.0919    1.2124    1.2290 C   0  0  0  0  0  0  0  0  0  0  0  0
   -4.7462    1.0418    0.7775 H   0  0  0  0  0  0  0  0  0  0  0  0
   -5.2525    1.7699    2.3490 H   0  0  0  0  0  0  0  0  0  0  0  0
   -5.2024   -0.0220    2.1365 H   0  0  0  0  0  0  0  0  0  0  0  0
   -2.0953    0.4481    4.4649 H   0  0  0  0  0  0  0  0  0  0  0  0
    2.2020    0.1591    4.3985 H   0  0  0  0  0  0  0  0  0  0  0  0
   -0.6588   -2.1589   -0.4876 Au  0  0  0  0  0  0  0  0  0  0  0  0
    3.2959   -0.5668    2.4474 H   0  0  0  0  0  0  0  0  0  0  0  0
    2.4469   -0.8273    0.9098 H   0  0  0  0  0  0  0  0  0  0  0  0
    3.2216    1.9359    2.0497 H   0  0  0  0  0  0  0  0  0  0  0  0
    4.0658    1.0796    0.7321 H   0  0  0  0  0  0  0  0  0  0  0  0
    2.3939    1.6468    0.4978 H   0  0  0  0  0  0  0  0  0  0  0  0
  1 17  1  0  0  0  0
  1 16  1  0  0  0  0
  1  2  1  0  0  0  0
  3  2  1  0  0  0  0
  3  5  1  0  0  0  0
  4  3  2  0  0  0  0
  5  6  2  0  0  0  0
  6 18  1  0  0  0  0
  6  7  1  0  0  0  0
  7  8  1  0  0  0  0
  9 19  1  0  0  0  0
  9  7  2  0  0  0  0
 10  9  1  0  0  0  0
 11 10  2  0  0  0  0
 11  5  1  0  0  0  0
 12 11  1  0  0  0  0
 13 21  1  0  0  0  0
 13 10  1  0  0  0  0
 14 13  1  0  0  0  0
 14 23  1  0  0  0  0
 15  1  1  0  0  0  0
 20 12  1  0  0  0  0
 22 13  1  0  0  0  0
 24 14  1  0  0  0  0
 25 14  1  0  0  0  0
M  END
