317545701.xyz
 OpenBabel07262113493D
CCc1ccc(c(c1[N+](=O)[O-])OC)S
 25 25  0  0  0  0  0  0  0  0999 V2000
    1.5504    0.2898    6.7720 C   0  0  0  0  0  0  0  0  0  0  0  0
    0.1744    0.0843    6.1463 C   0  0  0  0  0  0  0  0  0  0  0  0
    0.1375    0.0649    4.6324 C   0  0  0  0  0  0  0  0  0  0  0  0
    1.2952    0.0530    3.8434 C   0  0  0  0  0  0  0  0  0  0  0  0
    1.2289    0.0000    2.4516 C   0  0  0  0  0  0  0  0  0  0  0  0
   -0.0000    0.0000    1.7755 C   0  0  0  0  0  0  0  0  0  0  0  0
   -1.1879    0.0476    2.5406 C   0  0  0  0  0  0  0  0  0  0  0  0
   -1.0832    0.0641    3.9369 C   0  0  0  0  0  0  0  0  0  0  0  0
   -2.3456    0.0990    4.6997 N   0  0  0  0  0  0  0  0  0  0  0  0
   -3.0818    1.0552    4.5261 O   0  0  0  0  0  0  0  0  0  0  0  0
   -2.5600   -0.8233    5.4671 O   0  0  0  0  0  0  0  0  0  0  0  0
   -2.4164   -0.0434    1.9755 O   0  0  0  0  0  0  0  0  0  0  0  0
   -2.9482    1.1507    1.3886 C   0  0  0  0  0  0  0  0  0  0  0  0
    0.0000    0.0000    0.0000 S   0  0  0  0  0  0  0  0  0  0  0  0
    1.4641    0.3232    7.8682 H   0  0  0  0  0  0  0  0  0  0  0  0
    2.0136    1.2337    6.4433 H   0  0  0  0  0  0  0  0  0  0  0  0
    2.2411   -0.5308    6.5224 H   0  0  0  0  0  0  0  0  0  0  0  0
   -0.5115    0.8730    6.5017 H   0  0  0  0  0  0  0  0  0  0  0  0
   -0.2679   -0.8575    6.5093 H   0  0  0  0  0  0  0  0  0  0  0  0
    2.2735    0.0648    4.3233 H   0  0  0  0  0  0  0  0  0  0  0  0
    2.1466   -0.0517    1.8626 H   0  0  0  0  0  0  0  0  0  0  0  0
   -2.2659    1.5472    0.6220 H   0  0  0  0  0  0  0  0  0  0  0  0
   -3.1318    1.8982    2.1744 H   0  0  0  0  0  0  0  0  0  0  0  0
   -3.8978    0.8636    0.9192 H   0  0  0  0  0  0  0  0  0  0  0  0
   -1.3887   -1.7806   -0.4852 Au  0  0  0  0  0  0  0  0  0  0  0  0
  1 15  1  0  0  0  0
  2 18  1  0  0  0  0
  2 19  1  0  0  0  0
  2  1  1  0  0  0  0
  3  2  1  0  0  0  0
  4 20  1  0  0  0  0
  4  3  2  0  0  0  0
  5  4  1  0  0  0  0
  6  5  2  0  0  0  0
  6  7  1  0  0  0  0
  7  8  2  0  0  0  0
  8  3  1  0  0  0  0
  8  9  1  0  0  0  0
  9 11  2  0  0  0  0
 10  9  2  0  0  0  0
 12  7  1  0  0  0  0
 13 12  1  0  0  0  0
 13 23  1  0  0  0  0
 14  6  1  0  0  0  0
 16  1  1  0  0  0  0
 17  1  1  0  0  0  0
 21  5  1  0  0  0  0
 22 13  1  0  0  0  0
 24 13  1  0  0  0  0
 25 14  1  0  0  0  0
M  END
