317582037.xyz
 OpenBabel07262113493D
CCc1cc(C(=O)Cl)c(cc1S)[N+](=O)[O-]
 23 23  0  0  0  0  0  0  0  0999 V2000
    3.0427    1.3001    1.4021 C   0  0  0  0  0  0  0  0  0  0  0  0
    2.5603   -0.0665    1.9107 C   0  0  0  0  0  0  0  0  0  0  0  0
    1.1957    0.0000    2.5457 C   0  0  0  0  0  0  0  0  0  0  0  0
    1.0920    0.0960    3.9404 C   0  0  0  0  0  0  0  0  0  0  0  0
   -0.1372    0.1892    4.5988 C   0  0  0  0  0  0  0  0  0  0  0  0
   -0.1747    0.1231    6.0949 C   0  0  0  0  0  0  0  0  0  0  0  0
   -0.7350   -0.6945    6.7428 O   0  0  0  0  0  0  0  0  0  0  0  0
    0.8578    1.3870    6.8533 Cl  0  0  0  0  0  0  0  0  0  0  0  0
   -1.3002    0.2040    3.8166 C   0  0  0  0  0  0  0  0  0  0  0  0
   -1.2399    0.0991    2.4334 C   0  0  0  0  0  0  0  0  0  0  0  0
   -0.0000   -0.0000    1.7856 C   0  0  0  0  0  0  0  0  0  0  0  0
    0.0000    0.0000    0.0000 S   0  0  0  0  0  0  0  0  0  0  0  0
   -2.6224    0.4158    4.4333 N   0  0  0  0  0  0  0  0  0  0  0  0
   -2.6489    1.0337    5.4846 O   0  0  0  0  0  0  0  0  0  0  0  0
   -3.5945   -0.0092    3.8349 O   0  0  0  0  0  0  0  0  0  0  0  0
    4.0460    1.2136    0.9575 H   0  0  0  0  0  0  0  0  0  0  0  0
    2.3608    1.6911    0.6330 H   0  0  0  0  0  0  0  0  0  0  0  0
    3.0933    2.0316    2.2236 H   0  0  0  0  0  0  0  0  0  0  0  0
    2.5377   -0.7800    1.0725 H   0  0  0  0  0  0  0  0  0  0  0  0
    3.2753   -0.4577    2.6514 H   0  0  0  0  0  0  0  0  0  0  0  0
    2.0034    0.0916    4.5412 H   0  0  0  0  0  0  0  0  0  0  0  0
   -2.1660    0.1074    1.8601 H   0  0  0  0  0  0  0  0  0  0  0  0
    0.3271   -2.2275   -0.4921 Au  0  0  0  0  0  0  0  0  0  0  0  0
  1  2  1  0  0  0  0
  1 18  1  0  0  0  0
  2  3  1  0  0  0  0
  2 20  1  0  0  0  0
  3  4  2  0  0  0  0
  4 21  1  0  0  0  0
  4  5  1  0  0  0  0
  5  6  1  0  0  0  0
  6  7  2  0  0  0  0
  6  8  1  0  0  0  0
  9 13  1  0  0  0  0
  9  5  2  0  0  0  0
 10  9  1  0  0  0  0
 11 10  2  0  0  0  0
 11  3  1  0  0  0  0
 12 11  1  0  0  0  0
 13 14  2  0  0  0  0
 15 13  2  0  0  0  0
 16  1  1  0  0  0  0
 17  1  1  0  0  0  0
 19  2  1  0  0  0  0
 22 10  1  0  0  0  0
 23 12  1  0  0  0  0
M  END
