317581029.xyz
 OpenBabel07262113493D
CCc1cc(c(cc1C)S)C(F)(F)F
 25 25  0  0  0  0  0  0  0  0999 V2000
   -0.3279    1.2003    6.7370 C   0  0  0  0  0  0  0  0  0  0  0  0
   -0.2119   -0.2015    6.1194 C   0  0  0  0  0  0  0  0  0  0  0  0
   -0.1739   -0.1693    4.6095 C   0  0  0  0  0  0  0  0  0  0  0  0
    1.0628   -0.0822    3.9576 C   0  0  0  0  0  0  0  0  0  0  0  0
    1.1745    0.0000    2.5688 C   0  0  0  0  0  0  0  0  0  0  0  0
    0.0000   -0.0000    1.7858 C   0  0  0  0  0  0  0  0  0  0  0  0
   -1.2370   -0.0918    2.4410 C   0  0  0  0  0  0  0  0  0  0  0  0
   -1.3520   -0.1753    3.8327 C   0  0  0  0  0  0  0  0  0  0  0  0
   -2.7152   -0.2813    4.4682 C   0  0  0  0  0  0  0  0  0  0  0  0
    0.0000    0.0000    0.0000 S   0  0  0  0  0  0  0  0  0  0  0  0
    2.5556    0.0850    1.9543 C   0  0  0  0  0  0  0  0  0  0  0  0
    2.8029   -0.9268    1.1116 F   0  0  0  0  0  0  0  0  0  0  0  0
    3.5169    0.0479    2.8995 F   0  0  0  0  0  0  0  0  0  0  0  0
    2.7369    1.2338    1.2742 F   0  0  0  0  0  0  0  0  0  0  0  0
    0.5304    1.8264    6.4476 H   0  0  0  0  0  0  0  0  0  0  0  0
   -0.3573    1.1470    7.8367 H   0  0  0  0  0  0  0  0  0  0  0  0
   -1.2401    1.7157    6.3978 H   0  0  0  0  0  0  0  0  0  0  0  0
    0.7067   -0.6833    6.4911 H   0  0  0  0  0  0  0  0  0  0  0  0
   -1.0497   -0.8265    6.4657 H   0  0  0  0  0  0  0  0  0  0  0  0
    1.9741   -0.0837    4.5569 H   0  0  0  0  0  0  0  0  0  0  0  0
   -2.1386   -0.0951    1.8254 H   0  0  0  0  0  0  0  0  0  0  0  0
   -3.5092   -0.2359    3.7100 H   0  0  0  0  0  0  0  0  0  0  0  0
   -2.8925    0.5291    5.1926 H   0  0  0  0  0  0  0  0  0  0  0  0
   -2.8285   -1.2306    5.0176 H   0  0  0  0  0  0  0  0  0  0  0  0
    0.0948    2.2487   -0.4978 Au  0  0  0  0  0  0  0  0  0  0  0  0
  1 16  1  0  0  0  0
  2 19  1  0  0  0  0
  2 18  1  0  0  0  0
  2  1  1  0  0  0  0
  3  2  1  0  0  0  0
  4 20  1  0  0  0  0
  4  3  1  0  0  0  0
  5  4  2  0  0  0  0
  6  7  2  0  0  0  0
  6  5  1  0  0  0  0
  7  8  1  0  0  0  0
  8  9  1  0  0  0  0
  8  3  2  0  0  0  0
  9 24  1  0  0  0  0
  9 23  1  0  0  0  0
 10  6  1  0  0  0  0
 11  5  1  0  0  0  0
 11 13  1  0  0  0  0
 12 11  1  0  0  0  0
 14 11  1  0  0  0  0
 15  1  1  0  0  0  0
 17  1  1  0  0  0  0
 21  7  1  0  0  0  0
 22  9  1  0  0  0  0
 25 10  1  0  0  0  0
M  END
