317597349.xyz
 OpenBabel07262113493D
N#Cc1c(S)ccc(c1C(F)F)OC(F)(F)F
 21 21  0  0  0  0  0  0  0  0999 V2000
   -3.5518    0.0218    1.8049 N   0  0  0  0  0  0  0  0  0  0  0  0
   -2.4513    0.0129    2.1871 C   0  0  0  0  0  0  0  0  0  0  0  0
   -1.1044    0.0018    2.6664 C   0  0  0  0  0  0  0  0  0  0  0  0
   -0.0000   -0.0000    1.7655 C   0  0  0  0  0  0  0  0  0  0  0  0
    0.0000    0.0000    0.0000 S   0  0  0  0  0  0  0  0  0  0  0  0
    1.2936   -0.0000    2.3326 C   0  0  0  0  0  0  0  0  0  0  0  0
    1.4941   -0.0008    3.7034 C   0  0  0  0  0  0  0  0  0  0  0  0
    0.3960   -0.0150    4.5693 C   0  0  0  0  0  0  0  0  0  0  0  0
   -0.9025   -0.0126    4.0706 C   0  0  0  0  0  0  0  0  0  0  0  0
   -2.0803    0.0130    5.0238 C   0  0  0  0  0  0  0  0  0  0  0  0
   -2.0721    1.1625    5.7442 F   0  0  0  0  0  0  0  0  0  0  0  0
   -2.0092   -1.0262    5.8957 F   0  0  0  0  0  0  0  0  0  0  0  0
    0.5730    0.0344    5.9425 O   0  0  0  0  0  0  0  0  0  0  0  0
    1.1429   -1.0259    6.5693 C   0  0  0  0  0  0  0  0  0  0  0  0
    0.6081   -2.1873    6.1892 F   0  0  0  0  0  0  0  0  0  0  0  0
    0.9750   -0.8658    7.8699 F   0  0  0  0  0  0  0  0  0  0  0  0
    2.4649   -1.0994    6.3187 F   0  0  0  0  0  0  0  0  0  0  0  0
   -2.2119    0.0455   -0.6651 Au  0  0  0  0  0  0  0  0  0  0  0  0
    2.1579    0.0092    1.6659 H   0  0  0  0  0  0  0  0  0  0  0  0
    2.5023    0.0124    4.1170 H   0  0  0  0  0  0  0  0  0  0  0  0
   -3.0439   -0.0536    4.4948 H   0  0  0  0  0  0  0  0  0  0  0  0
  1  2  3  0  0  0  0
  2  3  1  0  0  0  0
  3  9  2  0  0  0  0
  4  6  2  0  0  0  0
  4  3  1  0  0  0  0
  5  4  1  0  0  0  0
  6  7  1  0  0  0  0
  7 20  1  0  0  0  0
  7  8  2  0  0  0  0
  8 13  1  0  0  0  0
  9  8  1  0  0  0  0
  9 10  1  0  0  0  0
 10 11  1  0  0  0  0
 10 12  1  0  0  0  0
 13 14  1  0  0  0  0
 14 16  1  0  0  0  0
 15 14  1  0  0  0  0
 17 14  1  0  0  0  0
 18  5  1  0  0  0  0
 19  6  1  0  0  0  0
 21 10  1  0  0  0  0
M  END
