317523936.xyz
 OpenBabel07262113493D
CCc1cc(cc(c1C(F)(F)F)S)C(=O)Cl
 24 24  0  0  0  0  0  0  0  0999 V2000
   -2.8316   -1.2421    5.2205 C   0  0  0  0  0  0  0  0  0  0  0  0
   -2.2293    0.1503    4.9853 C   0  0  0  0  0  0  0  0  0  0  0  0
   -1.0720    0.1315    4.0011 C   0  0  0  0  0  0  0  0  0  0  0  0
    0.2094    0.1169    4.5691 C   0  0  0  0  0  0  0  0  0  0  0  0
    1.3714    0.0549    3.7943 C   0  0  0  0  0  0  0  0  0  0  0  0
    1.2596    0.0000    2.4054 C   0  0  0  0  0  0  0  0  0  0  0  0
    0.0000   -0.0000    1.7955 C   0  0  0  0  0  0  0  0  0  0  0  0
   -1.1770    0.0722    2.5893 C   0  0  0  0  0  0  0  0  0  0  0  0
   -2.5182    0.0827    1.8592 C   0  0  0  0  0  0  0  0  0  0  0  0
   -2.6988   -1.0545    1.1626 F   0  0  0  0  0  0  0  0  0  0  0  0
   -3.5808    0.1830    2.6776 F   0  0  0  0  0  0  0  0  0  0  0  0
   -2.6054    1.1131    1.0092 F   0  0  0  0  0  0  0  0  0  0  0  0
    0.0000    0.0000    0.0000 S   0  0  0  0  0  0  0  0  0  0  0  0
    2.6702    0.0516    4.5250 C   0  0  0  0  0  0  0  0  0  0  0  0
    2.7935    0.1044    5.7073 O   0  0  0  0  0  0  0  0  0  0  0  0
    4.1332   -0.0472    3.4726 Cl  0  0  0  0  0  0  0  0  0  0  0  0
   -2.0680   -1.9411    5.5966 H   0  0  0  0  0  0  0  0  0  0  0  0
   -3.2493   -1.6616    4.2941 H   0  0  0  0  0  0  0  0  0  0  0  0
   -3.6423   -1.1919    5.9637 H   0  0  0  0  0  0  0  0  0  0  0  0
   -3.0102    0.8507    4.6683 H   0  0  0  0  0  0  0  0  0  0  0  0
   -1.8377    0.5325    5.9403 H   0  0  0  0  0  0  0  0  0  0  0  0
    0.3131    0.1592    5.6543 H   0  0  0  0  0  0  0  0  0  0  0  0
    2.1487   -0.0479    1.7798 H   0  0  0  0  0  0  0  0  0  0  0  0
   -0.0052   -2.2563   -0.4644 Au  0  0  0  0  0  0  0  0  0  0  0  0
  1 17  1  0  0  0  0
  1 19  1  0  0  0  0
  2  1  1  0  0  0  0
  2 21  1  0  0  0  0
  3  4  1  0  0  0  0
  3  2  1  0  0  0  0
  4 22  1  0  0  0  0
  5 14  1  0  0  0  0
  5  4  2  0  0  0  0
  6  5  1  0  0  0  0
  7  6  2  0  0  0  0
  7  8  1  0  0  0  0
  8  3  2  0  0  0  0
  9  8  1  0  0  0  0
  9 11  1  0  0  0  0
 10  9  1  0  0  0  0
 12  9  1  0  0  0  0
 13  7  1  0  0  0  0
 14 15  2  0  0  0  0
 16 14  1  0  0  0  0
 18  1  1  0  0  0  0
 20  2  1  0  0  0  0
 23  6  1  0  0  0  0
 24 13  1  0  0  0  0
M  END
