317580139.xyz
 OpenBabel07262113493D
NC(=O)c1ccc(c(c1I)S)I
 17 17  0  0  0  0  0  0  0  0999 V2000
    2.4362    0.7659    5.8135 N   0  0  0  0  0  0  0  0  0  0  0  0
    2.3941   -0.1681    4.8176 C   0  0  0  0  0  0  0  0  0  0  0  0
    3.2351   -1.0316    4.6782 O   0  0  0  0  0  0  0  0  0  0  0  0
    1.1541   -0.0801    3.9501 C   0  0  0  0  0  0  0  0  0  0  0  0
   -0.0887   -0.1598    4.5921 C   0  0  0  0  0  0  0  0  0  0  0  0
   -1.2750   -0.1676    3.8644 C   0  0  0  0  0  0  0  0  0  0  0  0
   -1.2308   -0.0808    2.4732 C   0  0  0  0  0  0  0  0  0  0  0  0
    0.0000   -0.0000    1.7728 C   0  0  0  0  0  0  0  0  0  0  0  0
    1.1914    0.0000    2.5489 C   0  0  0  0  0  0  0  0  0  0  0  0
    3.0811    0.2390    1.6008 I   0  0  0  0  0  0  0  0  0  0  0  0
    0.0000    0.0000    0.0000 S   0  0  0  0  0  0  0  0  0  0  0  0
   -3.1011   -0.0604    1.4646 I   0  0  0  0  0  0  0  0  0  0  0  0
    3.2507    0.7744    6.4174 H   0  0  0  0  0  0  0  0  0  0  0  0
    1.8217    1.5692    5.8105 H   0  0  0  0  0  0  0  0  0  0  0  0
   -0.1211   -0.2337    5.6814 H   0  0  0  0  0  0  0  0  0  0  0  0
   -2.2338   -0.2378    4.3788 H   0  0  0  0  0  0  0  0  0  0  0  0
    0.7097    2.1539   -0.4684 Au  0  0  0  0  0  0  0  0  0  0  0  0
  1 13  1  0  0  0  0
  2  1  1  0  0  0  0
  3  2  2  0  0  0  0
  4  5  1  0  0  0  0
  4  2  1  0  0  0  0
  5 15  1  0  0  0  0
  6 16  1  0  0  0  0
  6  5  2  0  0  0  0
  7  6  1  0  0  0  0
  8  7  2  0  0  0  0
  8  9  1  0  0  0  0
  9  4  2  0  0  0  0
 10  9  1  0  0  0  0
 11  8  1  0  0  0  0
 12  7  1  0  0  0  0
 14  1  1  0  0  0  0
 17 11  1  0  0  0  0
M  END
