317597114.xyz
 OpenBabel07262113493D
CCOc1cc(cc(c1S)C#N)C(=O)Cl
 23 23  0  0  0  0  0  0  0  0999 V2000
   -4.7076    0.0896    1.5693 C   0  0  0  0  0  0  0  0  0  0  0  0
   -3.5873    0.1576    2.5850 C   0  0  0  0  0  0  0  0  0  0  0  0
   -2.3536    0.0665    1.8785 O   0  0  0  0  0  0  0  0  0  0  0  0
   -1.1848    0.0936    2.5459 C   0  0  0  0  0  0  0  0  0  0  0  0
   -1.0969    0.1920    3.9328 C   0  0  0  0  0  0  0  0  0  0  0  0
    0.1536    0.2114    4.5784 C   0  0  0  0  0  0  0  0  0  0  0  0
    1.3256    0.1178    3.8290 C   0  0  0  0  0  0  0  0  0  0  0  0
    1.2475   -0.0000    2.4334 C   0  0  0  0  0  0  0  0  0  0  0  0
   -0.0000   -0.0000    1.7601 C   0  0  0  0  0  0  0  0  0  0  0  0
    0.0000    0.0000    0.0000 S   0  0  0  0  0  0  0  0  0  0  0  0
    2.4716   -0.1163    1.6912 C   0  0  0  0  0  0  0  0  0  0  0  0
    3.4904   -0.2095    1.1432 N   0  0  0  0  0  0  0  0  0  0  0  0
    0.1239    0.3316    6.0581 C   0  0  0  0  0  0  0  0  0  0  0  0
   -0.8627    0.4100    6.7220 O   0  0  0  0  0  0  0  0  0  0  0  0
    1.7436    0.3555    6.8539 Cl  0  0  0  0  0  0  0  0  0  0  0  0
   -5.6815    0.1735    2.0745 H   0  0  0  0  0  0  0  0  0  0  0  0
   -4.6820   -0.8668    1.0239 H   0  0  0  0  0  0  0  0  0  0  0  0
   -4.6190    0.9074    0.8390 H   0  0  0  0  0  0  0  0  0  0  0  0
   -3.6179    1.1077    3.1477 H   0  0  0  0  0  0  0  0  0  0  0  0
   -3.6585   -0.6682    3.3154 H   0  0  0  0  0  0  0  0  0  0  0  0
   -1.9886    0.2720    4.5515 H   0  0  0  0  0  0  0  0  0  0  0  0
    2.2983    0.1266    4.3168 H   0  0  0  0  0  0  0  0  0  0  0  0
   -1.6936   -1.4696   -0.5613 Au  0  0  0  0  0  0  0  0  0  0  0  0
  1 16  1  0  0  0  0
  1  2  1  0  0  0  0
  2 19  1  0  0  0  0
  2 20  1  0  0  0  0
  3  4  1  0  0  0  0
  3  2  1  0  0  0  0
  4  5  2  0  0  0  0
  5 21  1  0  0  0  0
  5  6  1  0  0  0  0
  6 13  1  0  0  0  0
  7 22  1  0  0  0  0
  7  6  2  0  0  0  0
  8  7  1  0  0  0  0
  9  8  2  0  0  0  0
  9  4  1  0  0  0  0
 10  9  1  0  0  0  0
 11  8  1  0  0  0  0
 12 11  3  0  0  0  0
 13 14  2  0  0  0  0
 13 15  1  0  0  0  0
 17  1  1  0  0  0  0
 18  1  1  0  0  0  0
 23 10  1  0  0  0  0
M  END
