317553408.xyz
 OpenBabel07262113493D
CCc1c(F)cc(cc1Br)S
 19 19  0  0  0  0  0  0  0  0999 V2000
   -0.0096   -1.1693    6.7668 C   0  0  0  0  0  0  0  0  0  0  0  0
    0.0581    0.2260    6.1296 C   0  0  0  0  0  0  0  0  0  0  0  0
   -0.0060    0.1738    4.6254 C   0  0  0  0  0  0  0  0  0  0  0  0
    1.1770    0.0785    3.8757 C   0  0  0  0  0  0  0  0  0  0  0  0
    2.3439    0.0647    4.5424 F   0  0  0  0  0  0  0  0  0  0  0  0
    1.2112   -0.0000    2.4906 C   0  0  0  0  0  0  0  0  0  0  0  0
    0.0000   -0.0000    1.7829 C   0  0  0  0  0  0  0  0  0  0  0  0
   -1.2119    0.0842    2.4851 C   0  0  0  0  0  0  0  0  0  0  0  0
   -1.1970    0.1621    3.8785 C   0  0  0  0  0  0  0  0  0  0  0  0
   -2.8826    0.2513    4.7765 Br  0  0  0  0  0  0  0  0  0  0  0  0
    0.0000    0.0000    0.0000 S   0  0  0  0  0  0  0  0  0  0  0  0
    0.8301   -1.7952    6.4276 H   0  0  0  0  0  0  0  0  0  0  0  0
   -0.9474   -1.6790    6.4983 H   0  0  0  0  0  0  0  0  0  0  0  0
    0.0387   -1.0979    7.8646 H   0  0  0  0  0  0  0  0  0  0  0  0
   -0.7710    0.8450    6.5020 H   0  0  0  0  0  0  0  0  0  0  0  0
    0.9954    0.7196    6.4246 H   0  0  0  0  0  0  0  0  0  0  0  0
    2.1686   -0.0655    1.9739 H   0  0  0  0  0  0  0  0  0  0  0  0
   -2.1556    0.0829    1.9409 H   0  0  0  0  0  0  0  0  0  0  0  0
   -0.0435   -2.2464   -0.5063 Au  0  0  0  0  0  0  0  0  0  0  0  0
  1 14  1  0  0  0  0
  2 16  1  0  0  0  0
  2 15  1  0  0  0  0
  2  1  1  0  0  0  0
  3  2  1  0  0  0  0
  4  5  1  0  0  0  0
  4  3  1  0  0  0  0
  6  4  2  0  0  0  0
  7  8  2  0  0  0  0
  7  6  1  0  0  0  0
  8  9  1  0  0  0  0
  9  3  2  0  0  0  0
  9 10  1  0  0  0  0
 11  7  1  0  0  0  0
 12  1  1  0  0  0  0
 13  1  1  0  0  0  0
 17  6  1  0  0  0  0
 18  8  1  0  0  0  0
 19 11  1  0  0  0  0
M  END
