317524158.xyz
 OpenBabel07262113493D
CCc1cc(C(=O)Cl)c(cc1S)F
 21 21  0  0  0  0  0  0  0  0999 V2000
    3.0633    1.5999    1.9634 C   0  0  0  0  0  0  0  0  0  0  0  0
    2.5658    0.1491    1.9401 C   0  0  0  0  0  0  0  0  0  0  0  0
    1.1935   -0.0000    2.5517 C   0  0  0  0  0  0  0  0  0  0  0  0
    1.0685   -0.1006    3.9369 C   0  0  0  0  0  0  0  0  0  0  0  0
   -0.1673   -0.2258    4.6004 C   0  0  0  0  0  0  0  0  0  0  0  0
   -0.0933   -0.3317    6.0831 C   0  0  0  0  0  0  0  0  0  0  0  0
    0.8658   -0.0349    6.7273 O   0  0  0  0  0  0  0  0  0  0  0  0
   -1.5270   -1.0298    6.9001 Cl  0  0  0  0  0  0  0  0  0  0  0  0
   -1.3284   -0.2160    3.8074 C   0  0  0  0  0  0  0  0  0  0  0  0
   -1.2445   -0.1036    2.4251 C   0  0  0  0  0  0  0  0  0  0  0  0
   -0.0000   -0.0000    1.7861 C   0  0  0  0  0  0  0  0  0  0  0  0
    0.0000    0.0000    0.0000 S   0  0  0  0  0  0  0  0  0  0  0  0
   -2.5454   -0.2820    4.3440 F   0  0  0  0  0  0  0  0  0  0  0  0
    2.3797    2.2606    1.4041 H   0  0  0  0  0  0  0  0  0  0  0  0
    4.0603    1.6824    1.5035 H   0  0  0  0  0  0  0  0  0  0  0  0
    3.1267    1.9831    2.9939 H   0  0  0  0  0  0  0  0  0  0  0  0
    2.5407   -0.2183    0.9043 H   0  0  0  0  0  0  0  0  0  0  0  0
    3.2737   -0.4872    2.4951 H   0  0  0  0  0  0  0  0  0  0  0  0
    1.9654   -0.0974    4.5594 H   0  0  0  0  0  0  0  0  0  0  0  0
   -2.1669   -0.0888    1.8442 H   0  0  0  0  0  0  0  0  0  0  0  0
    0.3527    2.2207   -0.5072 Au  0  0  0  0  0  0  0  0  0  0  0  0
  1 16  1  0  0  0  0
  2  1  1  0  0  0  0
  2 18  1  0  0  0  0
  2  3  1  0  0  0  0
  3  4  2  0  0  0  0
  4 19  1  0  0  0  0
  4  5  1  0  0  0  0
  5  6  1  0  0  0  0
  6  7  2  0  0  0  0
  6  8  1  0  0  0  0
  9 13  1  0  0  0  0
  9  5  2  0  0  0  0
 10  9  1  0  0  0  0
 11 10  2  0  0  0  0
 11  3  1  0  0  0  0
 12 11  1  0  0  0  0
 14  1  1  0  0  0  0
 15  1  1  0  0  0  0
 17  2  1  0  0  0  0
 20 10  1  0  0  0  0
 21 12  1  0  0  0  0
M  END
