317589699.xyz
 OpenBabel07262113493D
N#CCc1cc(F)c(cc1S)C#N
 18 18  0  0  0  0  0  0  0  0999 V2000
    3.2706   -2.1661    0.7111 N   0  0  0  0  0  0  0  0  0  0  0  0
    2.9504   -1.1643    1.1951 C   0  0  0  0  0  0  0  0  0  0  0  0
    2.5539    0.0937    1.8355 C   0  0  0  0  0  0  0  0  0  0  0  0
    1.2065    0.0000    2.5239 C   0  0  0  0  0  0  0  0  0  0  0  0
    1.1547   -0.0877    3.9172 C   0  0  0  0  0  0  0  0  0  0  0  0
   -0.0699   -0.1742    4.5698 C   0  0  0  0  0  0  0  0  0  0  0  0
   -0.0978   -0.2561    5.8957 F   0  0  0  0  0  0  0  0  0  0  0  0
   -1.2796   -0.1759    3.8570 C   0  0  0  0  0  0  0  0  0  0  0  0
   -1.2240   -0.0868    2.4571 C   0  0  0  0  0  0  0  0  0  0  0  0
   -0.0000   -0.0000    1.7824 C   0  0  0  0  0  0  0  0  0  0  0  0
    0.0000    0.0000    0.0000 S   0  0  0  0  0  0  0  0  0  0  0  0
   -2.5302   -0.2603    4.5487 C   0  0  0  0  0  0  0  0  0  0  0  0
   -3.5514   -0.3244    5.0954 N   0  0  0  0  0  0  0  0  0  0  0  0
    3.3303    0.3675    2.5661 H   0  0  0  0  0  0  0  0  0  0  0  0
    2.5294    0.8786    1.0624 H   0  0  0  0  0  0  0  0  0  0  0  0
    2.0654   -0.0951    4.5185 H   0  0  0  0  0  0  0  0  0  0  0  0
   -2.1514   -0.0836    1.8840 H   0  0  0  0  0  0  0  0  0  0  0  0
    0.1125    2.2485   -0.4991 Au  0  0  0  0  0  0  0  0  0  0  0  0
  1  2  3  0  0  0  0
  2  3  1  0  0  0  0
  3  4  1  0  0  0  0
  3 14  1  0  0  0  0
  4  5  2  0  0  0  0
  5 16  1  0  0  0  0
  5  6  1  0  0  0  0
  6  7  1  0  0  0  0
  8 12  1  0  0  0  0
  8  6  2  0  0  0  0
  9  8  1  0  0  0  0
 10  9  2  0  0  0  0
 10  4  1  0  0  0  0
 11 10  1  0  0  0  0
 12 13  3  0  0  0  0
 15  3  1  0  0  0  0
 17  9  1  0  0  0  0
 18 11  1  0  0  0  0
M  END
