317593062.xyz
 OpenBabel07262113493D
FC(Oc1ccc(c(c1S)I)I)F
 17 17  0  0  0  0  0  0  0  0999 V2000
   -3.8544   -0.9326    0.4960 F   0  0  0  0  0  0  0  0  0  0  0  0
   -2.9012   -1.2364    1.3865 C   0  0  0  0  0  0  0  0  0  0  0  0
   -2.4212   -0.0429    1.8772 O   0  0  0  0  0  0  0  0  0  0  0  0
   -1.1998   -0.0826    2.5198 C   0  0  0  0  0  0  0  0  0  0  0  0
   -1.1976   -0.1345    3.9097 C   0  0  0  0  0  0  0  0  0  0  0  0
    0.0088   -0.1270    4.6025 C   0  0  0  0  0  0  0  0  0  0  0  0
    1.2194   -0.0663    3.9009 C   0  0  0  0  0  0  0  0  0  0  0  0
    1.2239   -0.0000    2.4973 C   0  0  0  0  0  0  0  0  0  0  0  0
    0.0000   -0.0000    1.7790 C   0  0  0  0  0  0  0  0  0  0  0  0
    0.0000    0.0000    0.0000 S   0  0  0  0  0  0  0  0  0  0  0  0
    3.0425    0.0649    1.4038 I   0  0  0  0  0  0  0  0  0  0  0  0
    2.9856   -0.0641    5.0806 I   0  0  0  0  0  0  0  0  0  0  0  0
   -3.4740   -1.9461    2.3862 F   0  0  0  0  0  0  0  0  0  0  0  0
   -2.1155   -1.8488    0.9151 H   0  0  0  0  0  0  0  0  0  0  0  0
   -2.1530   -0.1885    4.4326 H   0  0  0  0  0  0  0  0  0  0  0  0
    0.0128   -0.1725    5.6918 H   0  0  0  0  0  0  0  0  0  0  0  0
   -1.6121    1.5659   -0.5528 Au  0  0  0  0  0  0  0  0  0  0  0  0
  1  2  1  0  0  0  0
  2  3  1  0  0  0  0
  2 13  1  0  0  0  0
  3  4  1  0  0  0  0
  4  5  2  0  0  0  0
  5 15  1  0  0  0  0
  5  6  1  0  0  0  0
  6 16  1  0  0  0  0
  7  6  2  0  0  0  0
  7 12  1  0  0  0  0
  8  7  1  0  0  0  0
  9  8  2  0  0  0  0
  9  4  1  0  0  0  0
 10  9  1  0  0  0  0
 11  8  1  0  0  0  0
 14  2  1  0  0  0  0
 17 10  1  0  0  0  0
M  END
