317578460.xyz
 OpenBabel07262113493D
N#CCc1c(C)cc(cc1CC)S
 26 26  0  0  0  0  0  0  0  0999 V2000
   -0.2227    2.6909    6.9685 N   0  0  0  0  0  0  0  0  0  0  0  0
   -0.1264    1.5971    6.5991 C   0  0  0  0  0  0  0  0  0  0  0  0
   -0.0124    0.2202    6.1059 C   0  0  0  0  0  0  0  0  0  0  0  0
    0.0056    0.1451    4.5856 C   0  0  0  0  0  0  0  0  0  0  0  0
   -1.2206    0.1786    3.8846 C   0  0  0  0  0  0  0  0  0  0  0  0
   -2.5337    0.3099    4.6156 C   0  0  0  0  0  0  0  0  0  0  0  0
   -1.2070    0.0991    2.4893 C   0  0  0  0  0  0  0  0  0  0  0  0
   -0.0000    0.0000    1.7834 C   0  0  0  0  0  0  0  0  0  0  0  0
    1.2080   -0.0000    2.4909 C   0  0  0  0  0  0  0  0  0  0  0  0
    1.2293    0.0781    3.8881 C   0  0  0  0  0  0  0  0  0  0  0  0
    2.5668    0.0514    4.5981 C   0  0  0  0  0  0  0  0  0  0  0  0
    2.9916   -1.3612    5.0234 C   0  0  0  0  0  0  0  0  0  0  0  0
    0.0000    0.0000    0.0000 S   0  0  0  0  0  0  0  0  0  0  0  0
    0.8938   -0.2223    6.5401 H   0  0  0  0  0  0  0  0  0  0  0  0
   -0.8588   -0.3535    6.5130 H   0  0  0  0  0  0  0  0  0  0  0  0
   -2.5586    1.2157    5.2427 H   0  0  0  0  0  0  0  0  0  0  0  0
   -3.3722    0.3667    3.9083 H   0  0  0  0  0  0  0  0  0  0  0  0
   -2.7190   -0.5499    5.2817 H   0  0  0  0  0  0  0  0  0  0  0  0
   -2.1463    0.1184    1.9337 H   0  0  0  0  0  0  0  0  0  0  0  0
    2.1470   -0.0559    1.9364 H   0  0  0  0  0  0  0  0  0  0  0  0
    3.3291    0.4646    3.9193 H   0  0  0  0  0  0  0  0  0  0  0  0
    2.5539    0.7221    5.4717 H   0  0  0  0  0  0  0  0  0  0  0  0
    2.2653   -1.8150    5.7169 H   0  0  0  0  0  0  0  0  0  0  0  0
    3.9729   -1.3472    5.5232 H   0  0  0  0  0  0  0  0  0  0  0  0
    3.0620   -2.0255    4.1480 H   0  0  0  0  0  0  0  0  0  0  0  0
   -0.0605   -2.2441   -0.5132 Au  0  0  0  0  0  0  0  0  0  0  0  0
  2  1  3  0  0  0  0
  3 15  1  0  0  0  0
  3 14  1  0  0  0  0
  3  2  1  0  0  0  0
  4  3  1  0  0  0  0
  5  4  2  0  0  0  0
  5  6  1  0  0  0  0
  6 16  1  0  0  0  0
  6 18  1  0  0  0  0
  7  5  1  0  0  0  0
  8  7  2  0  0  0  0
  8  9  1  0  0  0  0
  9 10  2  0  0  0  0
 10  4  1  0  0  0  0
 10 11  1  0  0  0  0
 11 12  1  0  0  0  0
 11 22  1  0  0  0  0
 12 24  1  0  0  0  0
 12 23  1  0  0  0  0
 13  8  1  0  0  0  0
 17  6  1  0  0  0  0
 19  7  1  0  0  0  0
 20  9  1  0  0  0  0
 21 11  1  0  0  0  0
 25 12  1  0  0  0  0
 26 13  1  0  0  0  0
M  END
