317529081.xyz
 OpenBabel07262113493D
CCc1c(S)ccc(c1[N+](=O)[O-])C(F)(F)F
 24 24  0  0  0  0  0  0  0  0999 V2000
   -2.9606   -1.5032    1.3817 C   0  0  0  0  0  0  0  0  0  0  0  0
   -2.5565   -0.1080    1.8786 C   0  0  0  0  0  0  0  0  0  0  0  0
   -1.1992   -0.0902    2.5386 C   0  0  0  0  0  0  0  0  0  0  0  0
    0.0000   -0.0000    1.7866 C   0  0  0  0  0  0  0  0  0  0  0  0
    0.0000    0.0000    0.0000 S   0  0  0  0  0  0  0  0  0  0  0  0
    1.2455    0.0000    2.4316 C   0  0  0  0  0  0  0  0  0  0  0  0
    1.3352   -0.0867    3.8174 C   0  0  0  0  0  0  0  0  0  0  0  0
    0.1752   -0.1594    4.5901 C   0  0  0  0  0  0  0  0  0  0  0  0
   -1.0614   -0.1664    3.9309 C   0  0  0  0  0  0  0  0  0  0  0  0
   -2.3029   -0.2502    4.7347 N   0  0  0  0  0  0  0  0  0  0  0  0
   -2.9624   -1.2677    4.6324 O   0  0  0  0  0  0  0  0  0  0  0  0
   -2.5789    0.7171    5.4190 O   0  0  0  0  0  0  0  0  0  0  0  0
    0.2928   -0.2057    6.1007 C   0  0  0  0  0  0  0  0  0  0  0  0
    0.0797    0.9956    6.6522 F   0  0  0  0  0  0  0  0  0  0  0  0
    1.5222   -0.6007    6.4720 F   0  0  0  0  0  0  0  0  0  0  0  0
   -0.5848   -1.0670    6.6392 F   0  0  0  0  0  0  0  0  0  0  0  0
   -3.0167   -2.2083    2.2226 H   0  0  0  0  0  0  0  0  0  0  0  0
   -2.2332   -1.8786    0.6472 H   0  0  0  0  0  0  0  0  0  0  0  0
   -3.9472   -1.4622    0.8954 H   0  0  0  0  0  0  0  0  0  0  0  0
   -3.3177    0.2718    2.5749 H   0  0  0  0  0  0  0  0  0  0  0  0
   -2.5321    0.5901    1.0287 H   0  0  0  0  0  0  0  0  0  0  0  0
   -0.5160    2.1906   -0.4976 Au  0  0  0  0  0  0  0  0  0  0  0  0
    2.1499    0.0686    1.8256 H   0  0  0  0  0  0  0  0  0  0  0  0
    2.3081   -0.0986    4.3084 H   0  0  0  0  0  0  0  0  0  0  0  0
  1  2  1  0  0  0  0
  1 17  1  0  0  0  0
  2  3  1  0  0  0  0
  2 20  1  0  0  0  0
  3  9  2  0  0  0  0
  4  6  2  0  0  0  0
  4  3  1  0  0  0  0
  5  4  1  0  0  0  0
  6  7  1  0  0  0  0
  7 24  1  0  0  0  0
  7  8  2  0  0  0  0
  8 13  1  0  0  0  0
  9  8  1  0  0  0  0
  9 10  1  0  0  0  0
 10 12  2  0  0  0  0
 11 10  2  0  0  0  0
 13 15  1  0  0  0  0
 13 16  1  0  0  0  0
 13 14  1  0  0  0  0
 18  1  1  0  0  0  0
 19  1  1  0  0  0  0
 21  2  1  0  0  0  0
 22  5  1  0  0  0  0
 23  6  1  0  0  0  0
M  END
