317574610.xyz
 OpenBabel07262113493D
CCc1c(OC)ccc(c1S)C(=O)Cl
 25 25  0  0  0  0  0  0  0  0999 V2000
   -3.0774    1.3913    1.4161 C   0  0  0  0  0  0  0  0  0  0  0  0
   -2.5600   -0.0161    1.7440 C   0  0  0  0  0  0  0  0  0  0  0  0
   -1.2350    0.0046    2.4639 C   0  0  0  0  0  0  0  0  0  0  0  0
   -1.2289    0.0606    3.8805 C   0  0  0  0  0  0  0  0  0  0  0  0
   -2.4476    0.1269    4.4670 O   0  0  0  0  0  0  0  0  0  0  0  0
   -2.5440    0.1395    5.8743 C   0  0  0  0  0  0  0  0  0  0  0  0
   -0.0305    0.0148    4.6028 C   0  0  0  0  0  0  0  0  0  0  0  0
    1.1816   -0.0405    3.9170 C   0  0  0  0  0  0  0  0  0  0  0  0
    1.2123    0.0000    2.5242 C   0  0  0  0  0  0  0  0  0  0  0  0
    0.0000    0.0000    1.7864 C   0  0  0  0  0  0  0  0  0  0  0  0
    0.0000    0.0000    0.0000 S   0  0  0  0  0  0  0  0  0  0  0  0
    2.5281    0.0736    1.8401 C   0  0  0  0  0  0  0  0  0  0  0  0
    2.9503    0.9042    1.1142 O   0  0  0  0  0  0  0  0  0  0  0  0
    3.5829   -1.3869    2.2596 Cl  0  0  0  0  0  0  0  0  0  0  0  0
   -3.2037    1.9872    2.3331 H   0  0  0  0  0  0  0  0  0  0  0  0
   -4.0514    1.3408    0.9041 H   0  0  0  0  0  0  0  0  0  0  0  0
   -2.3747    1.9244    0.7565 H   0  0  0  0  0  0  0  0  0  0  0  0
   -3.2948   -0.5352    2.3754 H   0  0  0  0  0  0  0  0  0  0  0  0
   -2.4446   -0.5890    0.8127 H   0  0  0  0  0  0  0  0  0  0  0  0
   -2.0326    1.0161    6.3095 H   0  0  0  0  0  0  0  0  0  0  0  0
   -3.6141    0.1947    6.1119 H   0  0  0  0  0  0  0  0  0  0  0  0
   -2.1225   -0.7786    6.3201 H   0  0  0  0  0  0  0  0  0  0  0  0
   -0.0284    0.0204    5.6915 H   0  0  0  0  0  0  0  0  0  0  0  0
    2.1187   -0.0934    4.4736 H   0  0  0  0  0  0  0  0  0  0  0  0
    1.2681   -1.8739   -0.4730 Au  0  0  0  0  0  0  0  0  0  0  0  0
  1  2  1  0  0  0  0
  1 15  1  0  0  0  0
  2 18  1  0  0  0  0
  2  3  1  0  0  0  0
  3  4  1  0  0  0  0
  4  5  1  0  0  0  0
  4  7  2  0  0  0  0
  5  6  1  0  0  0  0
  6 21  1  0  0  0  0
  6 20  1  0  0  0  0
  6 22  1  0  0  0  0
  7 23  1  0  0  0  0
  8 24  1  0  0  0  0
  8  7  1  0  0  0  0
  9  8  2  0  0  0  0
 10  3  2  0  0  0  0
 10  9  1  0  0  0  0
 11 10  1  0  0  0  0
 12 14  1  0  0  0  0
 12  9  1  0  0  0  0
 13 12  2  0  0  0  0
 16  1  1  0  0  0  0
 17  1  1  0  0  0  0
 19  2  1  0  0  0  0
 25 11  1  0  0  0  0
M  END
