317572165.xyz
 OpenBabel07262113493D
CCc1ccc(c(c1S)Cl)C(=O)O
 22 22  0  0  0  0  0  0  0  0999 V2000
    3.0358   -1.2918    1.2100 C   0  0  0  0  0  0  0  0  0  0  0  0
    2.5610    0.0740    1.7259 C   0  0  0  0  0  0  0  0  0  0  0  0
    1.2447    0.0000    2.4589 C   0  0  0  0  0  0  0  0  0  0  0  0
    1.2470   -0.1047    3.8549 C   0  0  0  0  0  0  0  0  0  0  0  0
    0.0640   -0.1863    4.5752 C   0  0  0  0  0  0  0  0  0  0  0  0
   -1.1848   -0.1735    3.9311 C   0  0  0  0  0  0  0  0  0  0  0  0
   -1.2061   -0.0772    2.5233 C   0  0  0  0  0  0  0  0  0  0  0  0
   -0.0000    0.0000    1.7786 C   0  0  0  0  0  0  0  0  0  0  0  0
    0.0000    0.0000    0.0000 S   0  0  0  0  0  0  0  0  0  0  0  0
   -2.7120    0.0130    1.6681 Cl  0  0  0  0  0  0  0  0  0  0  0  0
   -2.4207   -0.2906    4.7660 C   0  0  0  0  0  0  0  0  0  0  0  0
   -3.5388   -0.5249    4.3816 O   0  0  0  0  0  0  0  0  0  0  0  0
   -2.1501   -0.1156    6.0831 O   0  0  0  0  0  0  0  0  0  0  0  0
    3.1436   -2.0129    2.0356 H   0  0  0  0  0  0  0  0  0  0  0  0
    4.0104   -1.1994    0.7057 H   0  0  0  0  0  0  0  0  0  0  0  0
    2.3181   -1.7074    0.4866 H   0  0  0  0  0  0  0  0  0  0  0  0
    3.3175    0.4875    2.4120 H   0  0  0  0  0  0  0  0  0  0  0  0
    2.4654    0.7678    0.8775 H   0  0  0  0  0  0  0  0  0  0  0  0
    2.2023   -0.1123    4.3848 H   0  0  0  0  0  0  0  0  0  0  0  0
    0.0868   -0.2613    5.6612 H   0  0  0  0  0  0  0  0  0  0  0  0
   -0.8737    2.0765   -0.5086 Au  0  0  0  0  0  0  0  0  0  0  0  0
   -2.9969   -0.2374    6.5436 H   0  0  0  0  0  0  0  0  0  0  0  0
  1  2  1  0  0  0  0
  1 14  1  0  0  0  0
  2 17  1  0  0  0  0
  2  3  1  0  0  0  0
  3  4  1  0  0  0  0
  4 19  1  0  0  0  0
  4  5  2  0  0  0  0
  5 20  1  0  0  0  0
  6  5  1  0  0  0  0
  6 11  1  0  0  0  0
  7  6  2  0  0  0  0
  8  3  2  0  0  0  0
  8  7  1  0  0  0  0
  9  8  1  0  0  0  0
 10  7  1  0  0  0  0
 11 13  1  0  0  0  0
 12 11  2  0  0  0  0
 13 22  1  0  0  0  0
 15  1  1  0  0  0  0
 16  1  1  0  0  0  0
 18  2  1  0  0  0  0
 21  9  1  0  0  0  0
M  END
