317571283.xyz
 OpenBabel07262113493D
COc1c(ccc(c1CC)S)C(=O)Cl
 25 25  0  0  0  0  0  0  0  0999 V2000
   -2.4807   -1.5711    5.3116 C   0  0  0  0  0  0  0  0  0  0  0  0
   -2.2570   -0.3425    4.6368 O   0  0  0  0  0  0  0  0  0  0  0  0
   -1.0955   -0.2068    3.9410 C   0  0  0  0  0  0  0  0  0  0  0  0
    0.1612   -0.1578    4.5863 C   0  0  0  0  0  0  0  0  0  0  0  0
    1.3298   -0.0920    3.8067 C   0  0  0  0  0  0  0  0  0  0  0  0
    1.2524   -0.0000    2.4262 C   0  0  0  0  0  0  0  0  0  0  0  0
   -0.0000   -0.0000    1.7863 C   0  0  0  0  0  0  0  0  0  0  0  0
   -1.1933   -0.1099    2.5365 C   0  0  0  0  0  0  0  0  0  0  0  0
   -2.5553   -0.1589    1.8906 C   0  0  0  0  0  0  0  0  0  0  0  0
   -2.9432   -1.5665    1.4171 C   0  0  0  0  0  0  0  0  0  0  0  0
    0.0000    0.0000    0.0000 S   0  0  0  0  0  0  0  0  0  0  0  0
    0.3897   -0.1447    6.0553 C   0  0  0  0  0  0  0  0  0  0  0  0
    1.3359   -0.6103    6.6085 O   0  0  0  0  0  0  0  0  0  0  0  0
   -0.8227    0.7962    7.0090 Cl  0  0  0  0  0  0  0  0  0  0  0  0
   -3.4733   -1.4984    5.7749 H   0  0  0  0  0  0  0  0  0  0  0  0
   -1.7386   -1.7533    6.1057 H   0  0  0  0  0  0  0  0  0  0  0  0
   -2.4683   -2.4172    4.6029 H   0  0  0  0  0  0  0  0  0  0  0  0
    2.2956   -0.0825    4.3138 H   0  0  0  0  0  0  0  0  0  0  0  0
    2.1567    0.0798    1.8219 H   0  0  0  0  0  0  0  0  0  0  0  0
   -2.5646    0.5248    1.0290 H   0  0  0  0  0  0  0  0  0  0  0  0
   -3.2985    0.2041    2.6128 H   0  0  0  0  0  0  0  0  0  0  0  0
   -2.9669   -2.2766    2.2584 H   0  0  0  0  0  0  0  0  0  0  0  0
   -3.9418   -1.5590    0.9526 H   0  0  0  0  0  0  0  0  0  0  0  0
   -2.2237   -1.9404    0.6736 H   0  0  0  0  0  0  0  0  0  0  0  0
   -0.6043    2.1653   -0.5084 Au  0  0  0  0  0  0  0  0  0  0  0  0
  1 15  1  0  0  0  0
  1 16  1  0  0  0  0
  2  1  1  0  0  0  0
  3  4  1  0  0  0  0
  3  2  1  0  0  0  0
  4 12  1  0  0  0  0
  5 18  1  0  0  0  0
  5  4  2  0  0  0  0
  6  5  1  0  0  0  0
  7  6  2  0  0  0  0
  7  8  1  0  0  0  0
  8  3  2  0  0  0  0
  9  8  1  0  0  0  0
  9 21  1  0  0  0  0
 10  9  1  0  0  0  0
 10 22  1  0  0  0  0
 11  7  1  0  0  0  0
 12 13  2  0  0  0  0
 12 14  1  0  0  0  0
 17  1  1  0  0  0  0
 19  6  1  0  0  0  0
 20  9  1  0  0  0  0
 23 10  1  0  0  0  0
 24 10  1  0  0  0  0
 25 11  1  0  0  0  0
M  END
