317598906.xyz
 OpenBabel07262113493D
CCOc1cc(C(=O)Cl)c(cc1C#N)S
 23 23  0  0  0  0  0  0  0  0999 V2000
    0.4343    0.0683    8.2294 C   0  0  0  0  0  0  0  0  0  0  0  0
    0.9168    0.0274    6.7956 C   0  0  0  0  0  0  0  0  0  0  0  0
   -0.2314    0.0657    5.9488 O   0  0  0  0  0  0  0  0  0  0  0  0
   -0.0904    0.0434    4.6189 C   0  0  0  0  0  0  0  0  0  0  0  0
    1.1383   -0.0102    3.9482 C   0  0  0  0  0  0  0  0  0  0  0  0
    1.1789    0.0000    2.5513 C   0  0  0  0  0  0  0  0  0  0  0  0
    2.5156    0.0002    1.8842 C   0  0  0  0  0  0  0  0  0  0  0  0
    3.0329    0.8702    1.2784 O   0  0  0  0  0  0  0  0  0  0  0  0
    3.3666   -1.6016    2.1354 Cl  0  0  0  0  0  0  0  0  0  0  0  0
   -0.0000    0.0000    1.7781 C   0  0  0  0  0  0  0  0  0  0  0  0
   -1.2266    0.0242    2.4584 C   0  0  0  0  0  0  0  0  0  0  0  0
   -1.2868    0.0664    3.8554 C   0  0  0  0  0  0  0  0  0  0  0  0
   -2.5517    0.1063    4.5263 C   0  0  0  0  0  0  0  0  0  0  0  0
   -3.5882    0.1386    5.0471 N   0  0  0  0  0  0  0  0  0  0  0  0
    0.0000    0.0000    0.0000 S   0  0  0  0  0  0  0  0  0  0  0  0
   -0.2155   -0.7930    8.4438 H   0  0  0  0  0  0  0  0  0  0  0  0
   -0.1377    0.9885    8.4191 H   0  0  0  0  0  0  0  0  0  0  0  0
    1.2936    0.0403    8.9164 H   0  0  0  0  0  0  0  0  0  0  0  0
    1.4908   -0.8946    6.5923 H   0  0  0  0  0  0  0  0  0  0  0  0
    1.5685    0.8899    6.5675 H   0  0  0  0  0  0  0  0  0  0  0  0
    2.0727   -0.0579    4.5045 H   0  0  0  0  0  0  0  0  0  0  0  0
   -2.1529    0.0040    1.8835 H   0  0  0  0  0  0  0  0  0  0  0  0
    0.9483   -2.0551   -0.4722 Au  0  0  0  0  0  0  0  0  0  0  0  0
  1 17  1  0  0  0  0
  1 16  1  0  0  0  0
  1 18  1  0  0  0  0
  2  1  1  0  0  0  0
  3  2  1  0  0  0  0
  4  3  1  0  0  0  0
  5 21  1  0  0  0  0
  5  4  1  0  0  0  0
  6  5  2  0  0  0  0
  7  9  1  0  0  0  0
  7  6  1  0  0  0  0
  8  7  2  0  0  0  0
 10 11  2  0  0  0  0
 10  6  1  0  0  0  0
 11 12  1  0  0  0  0
 12 13  1  0  0  0  0
 12  4  2  0  0  0  0
 13 14  3  0  0  0  0
 15 10  1  0  0  0  0
 19  2  1  0  0  0  0
 20  2  1  0  0  0  0
 22 11  1  0  0  0  0
 23 15  1  0  0  0  0
M  END
