317596934.xyz
 OpenBabel07262113493D
COC(=O)Cc1cc(Cl)cc(c1S)CC
 28 28  0  0  0  0  0  0  0  0999 V2000
   -3.7541   -1.8804   -1.2176 C   0  0  0  0  0  0  0  0  0  0  0  0
   -3.4964   -0.8515   -0.2644 O   0  0  0  0  0  0  0  0  0  0  0  0
   -2.7571   -1.2123    0.7983 C   0  0  0  0  0  0  0  0  0  0  0  0
   -2.3686   -2.3352    0.9952 O   0  0  0  0  0  0  0  0  0  0  0  0
   -2.5453   -0.0354    1.7369 C   0  0  0  0  0  0  0  0  0  0  0  0
   -1.2339   -0.0867    2.4742 C   0  0  0  0  0  0  0  0  0  0  0  0
   -1.2317   -0.1869    3.8657 C   0  0  0  0  0  0  0  0  0  0  0  0
   -0.0215   -0.2004    4.5609 C   0  0  0  0  0  0  0  0  0  0  0  0
   -0.0336   -0.3373    6.3002 Cl  0  0  0  0  0  0  0  0  0  0  0  0
    1.1940   -0.1062    3.8865 C   0  0  0  0  0  0  0  0  0  0  0  0
    1.2253   -0.0000    2.4910 C   0  0  0  0  0  0  0  0  0  0  0  0
   -0.0000    0.0000    1.7799 C   0  0  0  0  0  0  0  0  0  0  0  0
    0.0000    0.0000    0.0000 S   0  0  0  0  0  0  0  0  0  0  0  0
    2.5630    0.1726    1.8101 C   0  0  0  0  0  0  0  0  0  0  0  0
    2.9409    1.6513    1.6509 C   0  0  0  0  0  0  0  0  0  0  0  0
   -4.3798   -1.4279   -1.9966 H   0  0  0  0  0  0  0  0  0  0  0  0
   -4.2754   -2.7294   -0.7502 H   0  0  0  0  0  0  0  0  0  0  0  0
   -2.8105   -2.2463   -1.6502 H   0  0  0  0  0  0  0  0  0  0  0  0
   -3.3773   -0.0509    2.4596 H   0  0  0  0  0  0  0  0  0  0  0  0
   -2.6375    0.8944    1.1552 H   0  0  0  0  0  0  0  0  0  0  0  0
   -2.1706   -0.2612    4.4155 H   0  0  0  0  0  0  0  0  0  0  0  0
    2.1260   -0.1153    4.4541 H   0  0  0  0  0  0  0  0  0  0  0  0
   -0.4027    2.2105   -0.5280 Au  0  0  0  0  0  0  0  0  0  0  0  0
    2.5396   -0.3065    0.8217 H   0  0  0  0  0  0  0  0  0  0  0  0
    3.3338   -0.3413    2.4062 H   0  0  0  0  0  0  0  0  0  0  0  0
    3.9171    1.7554    1.1519 H   0  0  0  0  0  0  0  0  0  0  0  0
    3.0004    2.1529    2.6298 H   0  0  0  0  0  0  0  0  0  0  0  0
    2.1928    2.1847    1.0436 H   0  0  0  0  0  0  0  0  0  0  0  0
  1 17  1  0  0  0  0
  1  2  1  0  0  0  0
  2  3  1  0  0  0  0
  3  4  2  0  0  0  0
  3  5  1  0  0  0  0
  5 19  1  0  0  0  0
  5  6  1  0  0  0  0
  6  7  1  0  0  0  0
  7 21  1  0  0  0  0
  7  8  2  0  0  0  0
  8  9  1  0  0  0  0
 10 22  1  0  0  0  0
 10  8  1  0  0  0  0
 11 10  2  0  0  0  0
 12  6  2  0  0  0  0
 12 11  1  0  0  0  0
 13 12  1  0  0  0  0
 14 25  1  0  0  0  0
 14 11  1  0  0  0  0
 15 14  1  0  0  0  0
 15 27  1  0  0  0  0
 16  1  1  0  0  0  0
 18  1  1  0  0  0  0
 20  5  1  0  0  0  0
 23 13  1  0  0  0  0
 24 14  1  0  0  0  0
 26 15  1  0  0  0  0
 28 15  1  0  0  0  0
M  END
