317522656.xyz
 OpenBabel07262113493D
CCc1c(S)c(ccc1C(F)(F)F)C(=O)Cl
 24 24  0  0  0  0  0  0  0  0999 V2000
    3.0408    1.2358    1.2016 C   0  0  0  0  0  0  0  0  0  0  0  0
    2.5398   -0.1133    1.7379 C   0  0  0  0  0  0  0  0  0  0  0  0
    1.2337   -0.0000    2.4920 C   0  0  0  0  0  0  0  0  0  0  0  0
    0.0000    0.0000    1.7893 C   0  0  0  0  0  0  0  0  0  0  0  0
    0.0000    0.0000    0.0000 S   0  0  0  0  0  0  0  0  0  0  0  0
   -1.2185    0.1308    2.4979 C   0  0  0  0  0  0  0  0  0  0  0  0
   -1.2161    0.2968    3.8844 C   0  0  0  0  0  0  0  0  0  0  0  0
   -0.0131    0.2867    4.5807 C   0  0  0  0  0  0  0  0  0  0  0  0
    1.1966    0.1381    3.8974 C   0  0  0  0  0  0  0  0  0  0  0  0
    2.4700    0.1160    4.7209 C   0  0  0  0  0  0  0  0  0  0  0  0
    3.3449    1.0632    4.3343 F   0  0  0  0  0  0  0  0  0  0  0  0
    3.1045   -1.0695    4.6277 F   0  0  0  0  0  0  0  0  0  0  0  0
    2.2258    0.3227    6.0251 F   0  0  0  0  0  0  0  0  0  0  0  0
   -2.5387    0.0185    1.8047 C   0  0  0  0  0  0  0  0  0  0  0  0
   -2.8933   -0.8381    1.0653 O   0  0  0  0  0  0  0  0  0  0  0  0
   -3.6712    1.3585    2.2541 Cl  0  0  0  0  0  0  0  0  0  0  0  0
    3.9926    1.1017    0.6646 H   0  0  0  0  0  0  0  0  0  0  0  0
    3.2071    1.9492    2.0209 H   0  0  0  0  0  0  0  0  0  0  0  0
    2.3145    1.6708    0.4993 H   0  0  0  0  0  0  0  0  0  0  0  0
    2.3881   -0.7994    0.8927 H   0  0  0  0  0  0  0  0  0  0  0  0
    3.3062   -0.5624    2.3805 H   0  0  0  0  0  0  0  0  0  0  0  0
   -0.4105   -2.2199   -0.4750 Au  0  0  0  0  0  0  0  0  0  0  0  0
   -2.1595    0.4280    4.4150 H   0  0  0  0  0  0  0  0  0  0  0  0
   -0.0114    0.3996    5.6640 H   0  0  0  0  0  0  0  0  0  0  0  0
  1  2  1  0  0  0  0
  1 18  1  0  0  0  0
  2 21  1  0  0  0  0
  2  3  1  0  0  0  0
  3  9  1  0  0  0  0
  4  3  2  0  0  0  0
  4  6  1  0  0  0  0
  5  4  1  0  0  0  0
  6  7  2  0  0  0  0
  7 23  1  0  0  0  0
  7  8  1  0  0  0  0
  8 24  1  0  0  0  0
  9  8  2  0  0  0  0
  9 10  1  0  0  0  0
 10 13  1  0  0  0  0
 11 10  1  0  0  0  0
 12 10  1  0  0  0  0
 14 16  1  0  0  0  0
 14  6  1  0  0  0  0
 15 14  2  0  0  0  0
 17  1  1  0  0  0  0
 19  1  1  0  0  0  0
 20  2  1  0  0  0  0
 22  5  1  0  0  0  0
M  END
