317587933.xyz
 OpenBabel07262113493D
N#Cc1c(S)cc(cc1[N+](=O)[O-])OC(F)(F)F
 20 20  0  0  0  0  0  0  0  0999 V2000
   -3.4481    0.0005    1.5941 N   0  0  0  0  0  0  0  0  0  0  0  0
   -2.4457    0.0001    2.1910 C   0  0  0  0  0  0  0  0  0  0  0  0
   -1.1040    0.0000    2.6767 C   0  0  0  0  0  0  0  0  0  0  0  0
   -0.0000    0.0000    1.7622 C   0  0  0  0  0  0  0  0  0  0  0  0
    0.0000    0.0000    0.0000 S   0  0  0  0  0  0  0  0  0  0  0  0
    1.3123    0.0000    2.2963 C   0  0  0  0  0  0  0  0  0  0  0  0
    1.5359    0.0002    3.6644 C   0  0  0  0  0  0  0  0  0  0  0  0
    0.4686    0.0005    4.5700 C   0  0  0  0  0  0  0  0  0  0  0  0
   -0.8137    0.0003    4.0630 C   0  0  0  0  0  0  0  0  0  0  0  0
   -1.9166    0.0004    5.0577 N   0  0  0  0  0  0  0  0  0  0  0  0
   -1.6083    0.0042    6.2351 O   0  0  0  0  0  0  0  0  0  0  0  0
   -3.0572   -0.0037    4.6303 O   0  0  0  0  0  0  0  0  0  0  0  0
    2.7780    0.0003    4.2572 O   0  0  0  0  0  0  0  0  0  0  0  0
    3.9317   -0.0013    3.5373 C   0  0  0  0  0  0  0  0  0  0  0  0
    4.0331    1.0780    2.7530 F   0  0  0  0  0  0  0  0  0  0  0  0
    4.0314   -1.0821    2.7551 F   0  0  0  0  0  0  0  0  0  0  0  0
    4.9323   -0.0012    4.3987 F   0  0  0  0  0  0  0  0  0  0  0  0
   -2.2298    0.0019   -0.6537 Au  0  0  0  0  0  0  0  0  0  0  0  0
    2.1446   -0.0000    1.5954 H   0  0  0  0  0  0  0  0  0  0  0  0
    0.6373    0.0009    5.6441 H   0  0  0  0  0  0  0  0  0  0  0  0
  1  2  3  0  0  0  0
  2  3  1  0  0  0  0
  3  9  2  0  0  0  0
  4  6  2  0  0  0  0
  4  3  1  0  0  0  0
  5  4  1  0  0  0  0
  6  7  1  0  0  0  0
  7 13  1  0  0  0  0
  7  8  2  0  0  0  0
  8 20  1  0  0  0  0
  9  8  1  0  0  0  0
  9 10  1  0  0  0  0
 10 11  2  0  0  0  0
 12 10  2  0  0  0  0
 14 13  1  0  0  0  0
 14 17  1  0  0  0  0
 15 14  1  0  0  0  0
 16 14  1  0  0  0  0
 18  5  1  0  0  0  0
 19  6  1  0  0  0  0
M  END
