317598468.xyz
 OpenBabel07262113493D
COC(=O)Cc1ccc(c(c1Cl)CC)S
 28 28  0  0  0  0  0  0  0  0999 V2000
    0.8870    3.9339    6.1662 C   0  0  0  0  0  0  0  0  0  0  0  0
    0.3335    2.6879    5.7474 O   0  0  0  0  0  0  0  0  0  0  0  0
    0.3674    1.6940    6.6490 C   0  0  0  0  0  0  0  0  0  0  0  0
    0.7709    1.8241    7.7760 O   0  0  0  0  0  0  0  0  0  0  0  0
   -0.2091    0.3995    6.0885 C   0  0  0  0  0  0  0  0  0  0  0  0
   -0.1391    0.2529    4.5929 C   0  0  0  0  0  0  0  0  0  0  0  0
   -1.3032    0.2312    3.8171 C   0  0  0  0  0  0  0  0  0  0  0  0
   -1.2392    0.1056    2.4341 C   0  0  0  0  0  0  0  0  0  0  0  0
    0.0000    0.0000    1.7838 C   0  0  0  0  0  0  0  0  0  0  0  0
    1.2068    0.0000    2.5291 C   0  0  0  0  0  0  0  0  0  0  0  0
    1.0909    0.1399    3.9214 C   0  0  0  0  0  0  0  0  0  0  0  0
    2.5542    0.2082    4.8999 Cl  0  0  0  0  0  0  0  0  0  0  0  0
    2.5544   -0.0997    1.8610 C   0  0  0  0  0  0  0  0  0  0  0  0
    3.1343    1.2772    1.5102 C   0  0  0  0  0  0  0  0  0  0  0  0
    0.0000    0.0000    0.0000 S   0  0  0  0  0  0  0  0  0  0  0  0
    0.3656    4.3155    7.0567 H   0  0  0  0  0  0  0  0  0  0  0  0
    0.7618    4.6232    5.3225 H   0  0  0  0  0  0  0  0  0  0  0  0
    1.9540    3.8169    6.4089 H   0  0  0  0  0  0  0  0  0  0  0  0
   -1.2600    0.3534    6.4164 H   0  0  0  0  0  0  0  0  0  0  0  0
    0.3228   -0.4146    6.6018 H   0  0  0  0  0  0  0  0  0  0  0  0
   -2.2734    0.3205    4.3115 H   0  0  0  0  0  0  0  0  0  0  0  0
   -2.1504    0.0937    1.8347 H   0  0  0  0  0  0  0  0  0  0  0  0
    3.2470   -0.6316    2.5288 H   0  0  0  0  0  0  0  0  0  0  0  0
    2.4541   -0.6968    0.9445 H   0  0  0  0  0  0  0  0  0  0  0  0
    2.4708    1.8083    0.8109 H   0  0  0  0  0  0  0  0  0  0  0  0
    4.1216    1.1732    1.0335 H   0  0  0  0  0  0  0  0  0  0  0  0
    3.2533    1.8951    2.4133 H   0  0  0  0  0  0  0  0  0  0  0  0
    0.1780   -2.2362   -0.5345 Au  0  0  0  0  0  0  0  0  0  0  0  0
  1 18  1  0  0  0  0
  1 16  1  0  0  0  0
  2  1  1  0  0  0  0
  2  3  1  0  0  0  0
  3  4  2  0  0  0  0
  5 19  1  0  0  0  0
  5 20  1  0  0  0  0
  5  3  1  0  0  0  0
  6  5  1  0  0  0  0
  7 21  1  0  0  0  0
  7  6  2  0  0  0  0
  8  7  1  0  0  0  0
  9  8  2  0  0  0  0
  9 10  1  0  0  0  0
 10 11  2  0  0  0  0
 11  6  1  0  0  0  0
 11 12  1  0  0  0  0
 13 23  1  0  0  0  0
 13 10  1  0  0  0  0
 14 13  1  0  0  0  0
 14 27  1  0  0  0  0
 15  9  1  0  0  0  0
 17  1  1  0  0  0  0
 22  8  1  0  0  0  0
 24 13  1  0  0  0  0
 25 14  1  0  0  0  0
 26 14  1  0  0  0  0
 28 15  1  0  0  0  0
M  END
