317534891.xyz
 OpenBabel07262113493D
CCOC(=O)c1c(I)cc(cc1CC)S
 28 28  0  0  0  0  0  0  0  0999 V2000
   -1.6333   -1.0749    8.5948 C   0  0  0  0  0  0  0  0  0  0  0  0
   -0.3573   -1.6166    7.9775 C   0  0  0  0  0  0  0  0  0  0  0  0
   -0.3331   -1.4257    6.5477 O   0  0  0  0  0  0  0  0  0  0  0  0
    0.0573   -0.2264    6.0964 C   0  0  0  0  0  0  0  0  0  0  0  0
    0.4326    0.6785    6.8013 O   0  0  0  0  0  0  0  0  0  0  0  0
    0.0209   -0.1635    4.5930 C   0  0  0  0  0  0  0  0  0  0  0  0
   -1.1877   -0.1588    3.8796 C   0  0  0  0  0  0  0  0  0  0  0  0
   -3.0692   -0.1997    4.8832 I   0  0  0  0  0  0  0  0  0  0  0  0
   -1.2111   -0.0784    2.4873 C   0  0  0  0  0  0  0  0  0  0  0  0
    0.0000    0.0000    1.7848 C   0  0  0  0  0  0  0  0  0  0  0  0
    1.2113    0.0000    2.4908 C   0  0  0  0  0  0  0  0  0  0  0  0
    1.2425   -0.0724    3.8861 C   0  0  0  0  0  0  0  0  0  0  0  0
    2.5714   -0.1101    4.6092 C   0  0  0  0  0  0  0  0  0  0  0  0
    2.9589   -1.5274    5.0553 C   0  0  0  0  0  0  0  0  0  0  0  0
    0.0000    0.0000    0.0000 S   0  0  0  0  0  0  0  0  0  0  0  0
   -1.6409   -1.2885    9.6755 H   0  0  0  0  0  0  0  0  0  0  0  0
   -2.5188   -1.5425    8.1397 H   0  0  0  0  0  0  0  0  0  0  0  0
   -1.7001    0.0136    8.4571 H   0  0  0  0  0  0  0  0  0  0  0  0
   -0.2755   -2.7044    8.1085 H   0  0  0  0  0  0  0  0  0  0  0  0
    0.5294   -1.1318    8.4117 H   0  0  0  0  0  0  0  0  0  0  0  0
   -2.1541   -0.0685    1.9412 H   0  0  0  0  0  0  0  0  0  0  0  0
    2.1475    0.0634    1.9331 H   0  0  0  0  0  0  0  0  0  0  0  0
    2.5308    0.5579    5.4817 H   0  0  0  0  0  0  0  0  0  0  0  0
    3.3471    0.2885    3.9372 H   0  0  0  0  0  0  0  0  0  0  0  0
    3.9215   -1.5206    5.5900 H   0  0  0  0  0  0  0  0  0  0  0  0
    3.0526   -2.2007    4.1887 H   0  0  0  0  0  0  0  0  0  0  0  0
    2.2001   -1.9589    5.7258 H   0  0  0  0  0  0  0  0  0  0  0  0
   -0.1603    2.2421   -0.4990 Au  0  0  0  0  0  0  0  0  0  0  0  0
  1 16  1  0  0  0  0
  2 19  1  0  0  0  0
  2 20  1  0  0  0  0
  2  1  1  0  0  0  0
  3  2  1  0  0  0  0
  4  3  1  0  0  0  0
  4  5  2  0  0  0  0
  6  4  1  0  0  0  0
  7  6  2  0  0  0  0
  7  8  1  0  0  0  0
  9  7  1  0  0  0  0
 10  9  2  0  0  0  0
 10 11  1  0  0  0  0
 11 12  2  0  0  0  0
 12  6  1  0  0  0  0
 12 13  1  0  0  0  0
 13 14  1  0  0  0  0
 13 23  1  0  0  0  0
 14 25  1  0  0  0  0
 14 27  1  0  0  0  0
 15 10  1  0  0  0  0
 17  1  1  0  0  0  0
 18  1  1  0  0  0  0
 21  9  1  0  0  0  0
 22 11  1  0  0  0  0
 24 13  1  0  0  0  0
 26 14  1  0  0  0  0
 28 15  1  0  0  0  0
M  END
