317572819.xyz
 OpenBabel07262113493D
COc1cc(C(=O)Cl)c(cc1CC)S
 25 25  0  0  0  0  0  0  0  0999 V2000
   -0.6066   -0.5367    6.7745 C   0  0  0  0  0  0  0  0  0  0  0  0
    0.4966   -0.3788    5.9069 O   0  0  0  0  0  0  0  0  0  0  0  0
    0.2813   -0.2643    4.5761 C   0  0  0  0  0  0  0  0  0  0  0  0
   -0.9839   -0.2770    3.9915 C   0  0  0  0  0  0  0  0  0  0  0  0
   -1.1453   -0.1421    2.6015 C   0  0  0  0  0  0  0  0  0  0  0  0
   -2.5147   -0.0995    2.0297 C   0  0  0  0  0  0  0  0  0  0  0  0
   -2.8785    0.4424    1.0389 O   0  0  0  0  0  0  0  0  0  0  0  0
   -3.7569   -1.0197    3.0211 Cl  0  0  0  0  0  0  0  0  0  0  0  0
    0.0000    0.0000    1.7785 C   0  0  0  0  0  0  0  0  0  0  0  0
    1.2656   -0.0000    2.4005 C   0  0  0  0  0  0  0  0  0  0  0  0
    1.4410   -0.1274    3.7745 C   0  0  0  0  0  0  0  0  0  0  0  0
    2.7922   -0.1243    4.4466 C   0  0  0  0  0  0  0  0  0  0  0  0
    3.9974    0.0288    3.5254 C   0  0  0  0  0  0  0  0  0  0  0  0
    0.0000    0.0000    0.0000 S   0  0  0  0  0  0  0  0  0  0  0  0
   -1.1781   -1.4520    6.5416 H   0  0  0  0  0  0  0  0  0  0  0  0
   -0.1959   -0.6163    7.7891 H   0  0  0  0  0  0  0  0  0  0  0  0
   -1.2877    0.3309    6.7270 H   0  0  0  0  0  0  0  0  0  0  0  0
   -1.8753   -0.3921    4.6017 H   0  0  0  0  0  0  0  0  0  0  0  0
    2.1354    0.1042    1.7529 H   0  0  0  0  0  0  0  0  0  0  0  0
    2.7889    0.6766    5.2069 H   0  0  0  0  0  0  0  0  0  0  0  0
    2.8781   -1.0541    5.0360 H   0  0  0  0  0  0  0  0  0  0  0  0
    4.0583   -0.7911    2.7924 H   0  0  0  0  0  0  0  0  0  0  0  0
    4.9289    0.0199    4.1112 H   0  0  0  0  0  0  0  0  0  0  0  0
    3.9660    0.9768    2.9655 H   0  0  0  0  0  0  0  0  0  0  0  0
   -0.7243    2.1241   -0.5424 Au  0  0  0  0  0  0  0  0  0  0  0  0
  1 16  1  0  0  0  0
  2  1  1  0  0  0  0
  3  2  1  0  0  0  0
  4  3  1  0  0  0  0
  4 18  1  0  0  0  0
  5  4  2  0  0  0  0
  6  5  1  0  0  0  0
  6  8  1  0  0  0  0
  7  6  2  0  0  0  0
  9 10  2  0  0  0  0
  9  5  1  0  0  0  0
 10 11  1  0  0  0  0
 11 12  1  0  0  0  0
 11  3  2  0  0  0  0
 12 21  1  0  0  0  0
 12 20  1  0  0  0  0
 13 23  1  0  0  0  0
 13 12  1  0  0  0  0
 14  9  1  0  0  0  0
 15  1  1  0  0  0  0
 17  1  1  0  0  0  0
 19 10  1  0  0  0  0
 22 13  1  0  0  0  0
 24 13  1  0  0  0  0
 25 14  1  0  0  0  0
M  END
