317596090.xyz
 OpenBabel07262113493D
CCOc1c(C#N)ccc(c1C(=O)Cl)S
 23 23  0  0  0  0  0  0  0  0999 V2000
   -4.1056    1.3805    5.6840 C   0  0  0  0  0  0  0  0  0  0  0  0
   -2.6212    1.4183    5.4009 C   0  0  0  0  0  0  0  0  0  0  0  0
   -2.3051    0.2553    4.6021 O   0  0  0  0  0  0  0  0  0  0  0  0
   -1.1268    0.2084    3.9459 C   0  0  0  0  0  0  0  0  0  0  0  0
    0.1269    0.1898    4.5995 C   0  0  0  0  0  0  0  0  0  0  0  0
    0.2070    0.2106    6.0276 C   0  0  0  0  0  0  0  0  0  0  0  0
    0.2843    0.2229    7.1862 N   0  0  0  0  0  0  0  0  0  0  0  0
    1.3019    0.0985    3.8303 C   0  0  0  0  0  0  0  0  0  0  0  0
    1.2398    0.0000    2.4462 C   0  0  0  0  0  0  0  0  0  0  0  0
    0.0000   -0.0000    1.7818 C   0  0  0  0  0  0  0  0  0  0  0  0
   -1.1766    0.1233    2.5470 C   0  0  0  0  0  0  0  0  0  0  0  0
   -2.5300    0.1688    1.9096 C   0  0  0  0  0  0  0  0  0  0  0  0
   -3.1213   -0.7302    1.4129 O   0  0  0  0  0  0  0  0  0  0  0  0
   -3.2283    1.8341    1.9308 Cl  0  0  0  0  0  0  0  0  0  0  0  0
    0.0000    0.0000    0.0000 S   0  0  0  0  0  0  0  0  0  0  0  0
   -4.6778    1.4224    4.7457 H   0  0  0  0  0  0  0  0  0  0  0  0
   -4.3893    2.2399    6.3106 H   0  0  0  0  0  0  0  0  0  0  0  0
   -4.3727    0.4569    6.2194 H   0  0  0  0  0  0  0  0  0  0  0  0
   -2.3461    2.3177    4.8257 H   0  0  0  0  0  0  0  0  0  0  0  0
   -2.0339    1.3988    6.3314 H   0  0  0  0  0  0  0  0  0  0  0  0
    2.2666    0.0825    4.3401 H   0  0  0  0  0  0  0  0  0  0  0  0
    2.1524   -0.0897    1.8559 H   0  0  0  0  0  0  0  0  0  0  0  0
   -1.0040   -2.0216   -0.4885 Au  0  0  0  0  0  0  0  0  0  0  0  0
  1 18  1  0  0  0  0
  1 17  1  0  0  0  0
  2  1  1  0  0  0  0
  2 20  1  0  0  0  0
  3  2  1  0  0  0  0
  4  5  1  0  0  0  0
  4  3  1  0  0  0  0
  5  6  1  0  0  0  0
  6  7  3  0  0  0  0
  8 21  1  0  0  0  0
  8  5  2  0  0  0  0
  9  8  1  0  0  0  0
 10  9  2  0  0  0  0
 10 11  1  0  0  0  0
 11  4  2  0  0  0  0
 12 14  1  0  0  0  0
 12 11  1  0  0  0  0
 13 12  2  0  0  0  0
 15 10  1  0  0  0  0
 16  1  1  0  0  0  0
 19  2  1  0  0  0  0
 22  9  1  0  0  0  0
 23 15  1  0  0  0  0
M  END
