317595835.xyz
 OpenBabel07262113493D
CCOc1cc(S)c(cc1C#N)C(=O)Cl
 23 23  0  0  0  0  0  0  0  0999 V2000
   -4.9755   -0.6862    4.5546 C   0  0  0  0  0  0  0  0  0  0  0  0
   -3.8284   -0.4940    3.5868 C   0  0  0  0  0  0  0  0  0  0  0  0
   -2.6188   -0.4613    4.3480 O   0  0  0  0  0  0  0  0  0  0  0  0
   -1.4405   -0.3108    3.7412 C   0  0  0  0  0  0  0  0  0  0  0  0
   -1.2697   -0.1606    2.3603 C   0  0  0  0  0  0  0  0  0  0  0  0
    0.0000   -0.0000    1.7817 C   0  0  0  0  0  0  0  0  0  0  0  0
    0.0000    0.0000    0.0000 S   0  0  0  0  0  0  0  0  0  0  0  0
    1.1520    0.0000    2.6233 C   0  0  0  0  0  0  0  0  0  0  0  0
    0.9678   -0.1485    4.0066 C   0  0  0  0  0  0  0  0  0  0  0  0
   -0.2953   -0.2940    4.5793 C   0  0  0  0  0  0  0  0  0  0  0  0
   -0.4446   -0.4274    5.9964 C   0  0  0  0  0  0  0  0  0  0  0  0
   -0.5450   -0.5328    7.1479 N   0  0  0  0  0  0  0  0  0  0  0  0
    2.5186    0.1760    2.0783 C   0  0  0  0  0  0  0  0  0  0  0  0
    2.8336    0.6732    1.0442 O   0  0  0  0  0  0  0  0  0  0  0  0
    3.8394   -0.4750    3.1553 Cl  0  0  0  0  0  0  0  0  0  0  0  0
   -5.0136    0.1402    5.2797 H   0  0  0  0  0  0  0  0  0  0  0  0
   -5.9288   -0.7164    4.0056 H   0  0  0  0  0  0  0  0  0  0  0  0
   -4.8601   -1.6286    5.1103 H   0  0  0  0  0  0  0  0  0  0  0  0
   -3.7760   -1.3200    2.8557 H   0  0  0  0  0  0  0  0  0  0  0  0
   -3.9304    0.4510    3.0246 H   0  0  0  0  0  0  0  0  0  0  0  0
   -2.1302   -0.1569    1.6949 H   0  0  0  0  0  0  0  0  0  0  0  0
    0.7693    2.1081   -0.5456 Au  0  0  0  0  0  0  0  0  0  0  0  0
    1.8395   -0.1509    4.6583 H   0  0  0  0  0  0  0  0  0  0  0  0
  1 18  1  0  0  0  0
  1 16  1  0  0  0  0
  2  3  1  0  0  0  0
  2  1  1  0  0  0  0
  4  3  1  0  0  0  0
  4 10  2  0  0  0  0
  5  4  1  0  0  0  0
  6  5  2  0  0  0  0
  6  8  1  0  0  0  0
  7  6  1  0  0  0  0
  8  9  2  0  0  0  0
  9 10  1  0  0  0  0
  9 23  1  0  0  0  0
 10 11  1  0  0  0  0
 11 12  3  0  0  0  0
 13  8  1  0  0  0  0
 13 15  1  0  0  0  0
 14 13  2  0  0  0  0
 17  1  1  0  0  0  0
 19  2  1  0  0  0  0
 20  2  1  0  0  0  0
 21  5  1  0  0  0  0
 22  7  1  0  0  0  0
M  END
