317591261.xyz
 OpenBabel07262113493D
N#Cc1cc(S)cc(c1[N+](=O)[O-])OC(F)(F)F
 20 20  0  0  0  0  0  0  0  0999 V2000
    3.7536   -0.0525    4.7791 N   0  0  0  0  0  0  0  0  0  0  0  0
    2.6615   -0.0802    4.3906 C   0  0  0  0  0  0  0  0  0  0  0  0
    1.3520   -0.0840    3.8022 C   0  0  0  0  0  0  0  0  0  0  0  0
    1.2536    0.0000    2.4061 C   0  0  0  0  0  0  0  0  0  0  0  0
    0.0000    0.0000    1.7717 C   0  0  0  0  0  0  0  0  0  0  0  0
    0.0000    0.0000    0.0000 S   0  0  0  0  0  0  0  0  0  0  0  0
   -1.1607   -0.0777    2.5572 C   0  0  0  0  0  0  0  0  0  0  0  0
   -1.0702   -0.1000    3.9453 C   0  0  0  0  0  0  0  0  0  0  0  0
    0.1780   -0.1072    4.5783 C   0  0  0  0  0  0  0  0  0  0  0  0
    0.2631   -0.1345    6.0452 N   0  0  0  0  0  0  0  0  0  0  0  0
    1.0719   -0.9050    6.5299 O   0  0  0  0  0  0  0  0  0  0  0  0
   -0.4704    0.6188    6.6585 O   0  0  0  0  0  0  0  0  0  0  0  0
   -2.2041   -0.2215    4.7180 O   0  0  0  0  0  0  0  0  0  0  0  0
   -3.0984    0.8061    4.7427 C   0  0  0  0  0  0  0  0  0  0  0  0
   -3.9355    0.5874    5.7368 F   0  0  0  0  0  0  0  0  0  0  0  0
   -2.5051    1.9867    4.8978 F   0  0  0  0  0  0  0  0  0  0  0  0
   -3.8052    0.8651    3.5956 F   0  0  0  0  0  0  0  0  0  0  0  0
    2.1677    0.0697    1.8158 H   0  0  0  0  0  0  0  0  0  0  0  0
   -1.9291    1.1124   -0.5789 Au  0  0  0  0  0  0  0  0  0  0  0  0
   -2.1457   -0.1242    2.0959 H   0  0  0  0  0  0  0  0  0  0  0  0
  2  1  3  0  0  0  0
  3  2  1  0  0  0  0
  3  9  2  0  0  0  0
  4  3  1  0  0  0  0
  5  4  2  0  0  0  0
  5  7  1  0  0  0  0
  6  5  1  0  0  0  0
  7  8  2  0  0  0  0
  8  9  1  0  0  0  0
  8 13  1  0  0  0  0
  9 10  1  0  0  0  0
 10 11  2  0  0  0  0
 10 12  2  0  0  0  0
 13 14  1  0  0  0  0
 14 16  1  0  0  0  0
 14 15  1  0  0  0  0
 17 14  1  0  0  0  0
 18  4  1  0  0  0  0
 19  6  1  0  0  0  0
 20  7  1  0  0  0  0
M  END
