317577539.xyz
 OpenBabel07262113493D
N#CCc1cc(CC)c(c(c1)S)Cl
 23 23  0  0  0  0  0  0  0  0999 V2000
    2.7202    0.1475    7.0575 N   0  0  0  0  0  0  0  0  0  0  0  0
    2.7340    0.1433    5.8995 C   0  0  0  0  0  0  0  0  0  0  0  0
    2.7320    0.1402    4.4373 C   0  0  0  0  0  0  0  0  0  0  0  0
    1.3468    0.1178    3.8073 C   0  0  0  0  0  0  0  0  0  0  0  0
    0.1770    0.2099    4.5635 C   0  0  0  0  0  0  0  0  0  0  0  0
   -1.0936    0.1948    3.9690 C   0  0  0  0  0  0  0  0  0  0  0  0
   -2.3263    0.2461    4.8402 C   0  0  0  0  0  0  0  0  0  0  0  0
   -2.9207   -1.1440    5.1062 C   0  0  0  0  0  0  0  0  0  0  0  0
   -1.1654    0.0944    2.5702 C   0  0  0  0  0  0  0  0  0  0  0  0
   -0.0000    0.0000    1.7755 C   0  0  0  0  0  0  0  0  0  0  0  0
    1.2471   -0.0000    2.4196 C   0  0  0  0  0  0  0  0  0  0  0  0
    0.0000    0.0000    0.0000 S   0  0  0  0  0  0  0  0  0  0  0  0
   -2.7368    0.0608    1.8071 Cl  0  0  0  0  0  0  0  0  0  0  0  0
    3.2861    1.0315    4.0954 H   0  0  0  0  0  0  0  0  0  0  0  0
    3.3149   -0.7317    4.0957 H   0  0  0  0  0  0  0  0  0  0  0  0
    0.2418    0.2922    5.6508 H   0  0  0  0  0  0  0  0  0  0  0  0
   -3.0855    0.8851    4.3642 H   0  0  0  0  0  0  0  0  0  0  0  0
   -2.0591    0.7216    5.7968 H   0  0  0  0  0  0  0  0  0  0  0  0
   -3.2209   -1.6290    4.1654 H   0  0  0  0  0  0  0  0  0  0  0  0
   -3.8105   -1.0709    5.7508 H   0  0  0  0  0  0  0  0  0  0  0  0
   -2.1880   -1.7959    5.6073 H   0  0  0  0  0  0  0  0  0  0  0  0
    2.1441   -0.0932    1.8036 H   0  0  0  0  0  0  0  0  0  0  0  0
   -1.0864   -1.9692   -0.5200 Au  0  0  0  0  0  0  0  0  0  0  0  0
  2  1  3  0  0  0  0
  3  2  1  0  0  0  0
  4  3  1  0  0  0  0
  4  5  2  0  0  0  0
  5 16  1  0  0  0  0
  6  5  1  0  0  0  0
  6  7  1  0  0  0  0
  7  8  1  0  0  0  0
  7 18  1  0  0  0  0
  8 21  1  0  0  0  0
  8 20  1  0  0  0  0
  9  6  2  0  0  0  0
 10 11  2  0  0  0  0
 10  9  1  0  0  0  0
 11  4  1  0  0  0  0
 12 10  1  0  0  0  0
 13  9  1  0  0  0  0
 14  3  1  0  0  0  0
 15  3  1  0  0  0  0
 17  7  1  0  0  0  0
 19  8  1  0  0  0  0
 22 11  1  0  0  0  0
 23 12  1  0  0  0  0
M  END
