317553951.xyz
 OpenBabel07262113493D
CCc1cc(Br)c(c(c1)[N+](=O)[O-])S
 21 21  0  0  0  0  0  0  0  0999 V2000
    0.1976    2.0714    6.4521 C   0  0  0  0  0  0  0  0  0  0  0  0
    0.0832    0.5791    6.1095 C   0  0  0  0  0  0  0  0  0  0  0  0
    0.0552    0.3339    4.6208 C   0  0  0  0  0  0  0  0  0  0  0  0
   -1.1560    0.3036    3.9193 C   0  0  0  0  0  0  0  0  0  0  0  0
   -1.1846    0.1483    2.5311 C   0  0  0  0  0  0  0  0  0  0  0  0
   -2.8841    0.1199    1.6872 Br  0  0  0  0  0  0  0  0  0  0  0  0
    0.0000   -0.0000    1.7736 C   0  0  0  0  0  0  0  0  0  0  0  0
    1.1970    0.0000    2.5182 C   0  0  0  0  0  0  0  0  0  0  0  0
    1.2430    0.1879    3.8941 C   0  0  0  0  0  0  0  0  0  0  0  0
    2.4998   -0.2374    1.8607 N   0  0  0  0  0  0  0  0  0  0  0  0
    2.6249   -1.2567    1.2080 O   0  0  0  0  0  0  0  0  0  0  0  0
    3.3744    0.5849    2.0693 O   0  0  0  0  0  0  0  0  0  0  0  0
    0.0000    0.0000    0.0000 S   0  0  0  0  0  0  0  0  0  0  0  0
    0.2179    2.2239    7.5424 H   0  0  0  0  0  0  0  0  0  0  0  0
   -0.6547    2.6363    6.0429 H   0  0  0  0  0  0  0  0  0  0  0  0
    1.1174    2.5045    6.0287 H   0  0  0  0  0  0  0  0  0  0  0  0
   -0.8310    0.1643    6.5639 H   0  0  0  0  0  0  0  0  0  0  0  0
    0.9319    0.0328    6.5521 H   0  0  0  0  0  0  0  0  0  0  0  0
   -2.0986    0.4086    4.4593 H   0  0  0  0  0  0  0  0  0  0  0  0
    2.2128    0.2122    4.3933 H   0  0  0  0  0  0  0  0  0  0  0  0
   -0.1005   -2.2608   -0.4479 Au  0  0  0  0  0  0  0  0  0  0  0  0
  1 14  1  0  0  0  0
  2  1  1  0  0  0  0
  2 18  1  0  0  0  0
  2 17  1  0  0  0  0
  3  2  1  0  0  0  0
  4 19  1  0  0  0  0
  4  3  1  0  0  0  0
  5  4  2  0  0  0  0
  6  5  1  0  0  0  0
  7  8  2  0  0  0  0
  7  5  1  0  0  0  0
  8  9  1  0  0  0  0
  9 20  1  0  0  0  0
  9  3  2  0  0  0  0
 10 12  2  0  0  0  0
 10  8  1  0  0  0  0
 11 10  2  0  0  0  0
 13  7  1  0  0  0  0
 15  1  1  0  0  0  0
 16  1  1  0  0  0  0
 21 13  1  0  0  0  0
M  END
