317572936.xyz
 OpenBabel07262113493D
CCc1c(S)cc(cc1C(=O)Cl)Cl
 21 21  0  0  0  0  0  0  0  0999 V2000
    2.9919    1.6247    1.8057 C   0  0  0  0  0  0  0  0  0  0  0  0
    2.5337    0.1607    1.8718 C   0  0  0  0  0  0  0  0  0  0  0  0
    1.1970   -0.0000    2.5556 C   0  0  0  0  0  0  0  0  0  0  0  0
   -0.0000   -0.0000    1.7905 C   0  0  0  0  0  0  0  0  0  0  0  0
    0.0000    0.0000    0.0000 S   0  0  0  0  0  0  0  0  0  0  0  0
   -1.2579   -0.1063    2.4038 C   0  0  0  0  0  0  0  0  0  0  0  0
   -1.3533   -0.2329    3.7868 C   0  0  0  0  0  0  0  0  0  0  0  0
   -0.2034   -0.2673    4.5656 C   0  0  0  0  0  0  0  0  0  0  0  0
    1.0601   -0.1447    3.9633 C   0  0  0  0  0  0  0  0  0  0  0  0
    2.2719   -0.1564    4.8347 C   0  0  0  0  0  0  0  0  0  0  0  0
    3.3412    0.3030    4.5914 O   0  0  0  0  0  0  0  0  0  0  0  0
    2.0418   -1.0066    6.4281 Cl  0  0  0  0  0  0  0  0  0  0  0  0
   -2.9192   -0.3582    4.5442 Cl  0  0  0  0  0  0  0  0  0  0  0  0
    2.2494    2.2498    1.2824 H   0  0  0  0  0  0  0  0  0  0  0  0
    3.1462    2.0353    2.8124 H   0  0  0  0  0  0  0  0  0  0  0  0
    3.9414    1.7022    1.2541 H   0  0  0  0  0  0  0  0  0  0  0  0
    2.4373   -0.2330    0.8512 H   0  0  0  0  0  0  0  0  0  0  0  0
    3.2998   -0.4308    2.3888 H   0  0  0  0  0  0  0  0  0  0  0  0
    0.1842    2.2361   -0.5287 Au  0  0  0  0  0  0  0  0  0  0  0  0
   -2.1580   -0.0922    1.7895 H   0  0  0  0  0  0  0  0  0  0  0  0
   -0.2818   -0.3855    5.6439 H   0  0  0  0  0  0  0  0  0  0  0  0
  1  2  1  0  0  0  0
  1 15  1  0  0  0  0
  2 18  1  0  0  0  0
  2  3  1  0  0  0  0
  3  9  2  0  0  0  0
  4  6  2  0  0  0  0
  4  3  1  0  0  0  0
  5  4  1  0  0  0  0
  6  7  1  0  0  0  0
  7 13  1  0  0  0  0
  7  8  2  0  0  0  0
  8 21  1  0  0  0  0
  9  8  1  0  0  0  0
  9 10  1  0  0  0  0
 10 12  1  0  0  0  0
 11 10  2  0  0  0  0
 14  1  1  0  0  0  0
 16  1  1  0  0  0  0
 17  2  1  0  0  0  0
 19  5  1  0  0  0  0
 20  6  1  0  0  0  0
M  END
