317542246.xyz
 OpenBabel07262113493D
CCc1ccc(c(c1Br)S)Br
 19 19  0  0  0  0  0  0  0  0999 V2000
    2.9670    1.3546    5.0468 C   0  0  0  0  0  0  0  0  0  0  0  0
    2.4872   -0.0732    4.7519 C   0  0  0  0  0  0  0  0  0  0  0  0
    1.2210   -0.1066    3.9284 C   0  0  0  0  0  0  0  0  0  0  0  0
   -0.0175   -0.2040    4.5800 C   0  0  0  0  0  0  0  0  0  0  0  0
   -1.2223   -0.1864    3.8849 C   0  0  0  0  0  0  0  0  0  0  0  0
   -1.2139   -0.0794    2.4945 C   0  0  0  0  0  0  0  0  0  0  0  0
   -0.0000   -0.0000    1.7726 C   0  0  0  0  0  0  0  0  0  0  0  0
    1.2028   -0.0000    2.5272 C   0  0  0  0  0  0  0  0  0  0  0  0
    2.8675    0.1797    1.6111 Br  0  0  0  0  0  0  0  0  0  0  0  0
    0.0000    0.0000    0.0000 S   0  0  0  0  0  0  0  0  0  0  0  0
   -2.8974   -0.0188    1.6141 Br  0  0  0  0  0  0  0  0  0  0  0  0
    3.8835    1.3401    5.6573 H   0  0  0  0  0  0  0  0  0  0  0  0
    3.1877    1.8958    4.1148 H   0  0  0  0  0  0  0  0  0  0  0  0
    2.1991    1.9225    5.5954 H   0  0  0  0  0  0  0  0  0  0  0  0
    3.2819   -0.6296    4.2334 H   0  0  0  0  0  0  0  0  0  0  0  0
    2.2965   -0.5984    5.7014 H   0  0  0  0  0  0  0  0  0  0  0  0
   -0.0314   -0.2921    5.6693 H   0  0  0  0  0  0  0  0  0  0  0  0
   -2.1718   -0.2540    4.4165 H   0  0  0  0  0  0  0  0  0  0  0  0
    0.1842    2.2532   -0.4600 Au  0  0  0  0  0  0  0  0  0  0  0  0
  1 14  1  0  0  0  0
  1 12  1  0  0  0  0
  2  1  1  0  0  0  0
  2 16  1  0  0  0  0
  3  4  1  0  0  0  0
  3  2  1  0  0  0  0
  4 17  1  0  0  0  0
  5 18  1  0  0  0  0
  5  4  2  0  0  0  0
  6  5  1  0  0  0  0
  7  6  2  0  0  0  0
  7  8  1  0  0  0  0
  8  3  2  0  0  0  0
  9  8  1  0  0  0  0
 10  7  1  0  0  0  0
 11  6  1  0  0  0  0
 13  1  1  0  0  0  0
 15  2  1  0  0  0  0
 19 10  1  0  0  0  0
M  END
