317572573.xyz
 OpenBabel07262113493D
N#CCc1c(CC)ccc(c1S)OC
 27 27  0  0  0  0  0  0  0  0999 V2000
    3.7277    2.1574    1.3623 N   0  0  0  0  0  0  0  0  0  0  0  0
    3.2021    1.1372    1.5208 C   0  0  0  0  0  0  0  0  0  0  0  0
    2.5338   -0.1465    1.7505 C   0  0  0  0  0  0  0  0  0  0  0  0
    1.2161    0.0000    2.4951 C   0  0  0  0  0  0  0  0  0  0  0  0
    1.2182    0.1609    3.8957 C   0  0  0  0  0  0  0  0  0  0  0  0
    2.4969    0.1750    4.7066 C   0  0  0  0  0  0  0  0  0  0  0  0
    2.9637   -1.2273    5.1224 C   0  0  0  0  0  0  0  0  0  0  0  0
   -0.0118    0.2703    4.5523 C   0  0  0  0  0  0  0  0  0  0  0  0
   -1.2256    0.2284    3.8667 C   0  0  0  0  0  0  0  0  0  0  0  0
   -1.2320    0.0950    2.4755 C   0  0  0  0  0  0  0  0  0  0  0  0
   -0.0000    0.0000    1.7734 C   0  0  0  0  0  0  0  0  0  0  0  0
    0.0000    0.0000    0.0000 S   0  0  0  0  0  0  0  0  0  0  0  0
   -2.3574    0.0236    1.7348 O   0  0  0  0  0  0  0  0  0  0  0  0
   -3.6134    0.1578    2.3627 C   0  0  0  0  0  0  0  0  0  0  0  0
    2.3509   -0.6135    0.7714 H   0  0  0  0  0  0  0  0  0  0  0  0
    3.2252   -0.7948    2.3083 H   0  0  0  0  0  0  0  0  0  0  0  0
    3.2980    0.6921    4.1565 H   0  0  0  0  0  0  0  0  0  0  0  0
    2.3271    0.7768    5.6137 H   0  0  0  0  0  0  0  0  0  0  0  0
    3.8906   -1.1778    5.7152 H   0  0  0  0  0  0  0  0  0  0  0  0
    2.1951   -1.7307    5.7296 H   0  0  0  0  0  0  0  0  0  0  0  0
    3.1571   -1.8693    4.2479 H   0  0  0  0  0  0  0  0  0  0  0  0
   -0.0231    0.3945    5.6384 H   0  0  0  0  0  0  0  0  0  0  0  0
   -2.1583    0.3126    4.4230 H   0  0  0  0  0  0  0  0  0  0  0  0
   -1.0893   -1.9671   -0.5277 Au  0  0  0  0  0  0  0  0  0  0  0  0
   -3.7923   -0.6488    3.0953 H   0  0  0  0  0  0  0  0  0  0  0  0
   -4.3650    0.0922    1.5657 H   0  0  0  0  0  0  0  0  0  0  0  0
   -3.7094    1.1324    2.8721 H   0  0  0  0  0  0  0  0  0  0  0  0
  1  2  3  0  0  0  0
  2  3  1  0  0  0  0
  3 16  1  0  0  0  0
  3  4  1  0  0  0  0
  4  5  2  0  0  0  0
  5  8  1  0  0  0  0
  5  6  1  0  0  0  0
  6  7  1  0  0  0  0
  6 18  1  0  0  0  0
  7 19  1  0  0  0  0
  7 20  1  0  0  0  0
  8 22  1  0  0  0  0
  9 23  1  0  0  0  0
  9  8  2  0  0  0  0
 10  9  1  0  0  0  0
 11 10  2  0  0  0  0
 11  4  1  0  0  0  0
 12 11  1  0  0  0  0
 13 14  1  0  0  0  0
 13 10  1  0  0  0  0
 14 27  1  0  0  0  0
 14 25  1  0  0  0  0
 15  3  1  0  0  0  0
 17  6  1  0  0  0  0
 21  7  1  0  0  0  0
 24 12  1  0  0  0  0
 26 14  1  0  0  0  0
M  END
