317527582.xyz
 OpenBabel07262113493D
COc1c(CC)ccc(c1Br)S
 23 23  0  0  0  0  0  0  0  0999 V2000
   -2.8315   -0.9064    5.1033 C   0  0  0  0  0  0  0  0  0  0  0  0
   -2.1880    0.3095    4.7455 O   0  0  0  0  0  0  0  0  0  0  0  0
   -1.0664    0.1881    3.9735 C   0  0  0  0  0  0  0  0  0  0  0  0
    0.1933    0.2174    4.6043 C   0  0  0  0  0  0  0  0  0  0  0  0
    0.2878    0.4092    6.0986 C   0  0  0  0  0  0  0  0  0  0  0  0
    0.0248    1.8610    6.5230 C   0  0  0  0  0  0  0  0  0  0  0  0
    1.3390    0.1284    3.8044 C   0  0  0  0  0  0  0  0  0  0  0  0
    1.2481    0.0000    2.4220 C   0  0  0  0  0  0  0  0  0  0  0  0
   -0.0000   -0.0000    1.7730 C   0  0  0  0  0  0  0  0  0  0  0  0
   -1.1599    0.0975    2.5738 C   0  0  0  0  0  0  0  0  0  0  0  0
   -2.8911    0.1243    1.7921 Br  0  0  0  0  0  0  0  0  0  0  0  0
    0.0000    0.0000    0.0000 S   0  0  0  0  0  0  0  0  0  0  0  0
   -3.2020   -1.4425    4.2143 H   0  0  0  0  0  0  0  0  0  0  0  0
   -3.6838   -0.6382    5.7419 H   0  0  0  0  0  0  0  0  0  0  0  0
   -2.1502   -1.5693    5.6654 H   0  0  0  0  0  0  0  0  0  0  0  0
   -0.4332   -0.2497    6.6074 H   0  0  0  0  0  0  0  0  0  0  0  0
    1.2905    0.0976    6.4323 H   0  0  0  0  0  0  0  0  0  0  0  0
    0.7465    2.5458    6.0506 H   0  0  0  0  0  0  0  0  0  0  0  0
   -0.9872    2.1701    6.2233 H   0  0  0  0  0  0  0  0  0  0  0  0
    0.1116    1.9727    7.6154 H   0  0  0  0  0  0  0  0  0  0  0  0
    2.3225    0.1466    4.2806 H   0  0  0  0  0  0  0  0  0  0  0  0
    2.1478   -0.0938    1.8121 H   0  0  0  0  0  0  0  0  0  0  0  0
   -1.0517   -1.9891   -0.5248 Au  0  0  0  0  0  0  0  0  0  0  0  0
  1 15  1  0  0  0  0
  1 14  1  0  0  0  0
  2  1  1  0  0  0  0
  3  4  1  0  0  0  0
  3  2  1  0  0  0  0
  4  5  1  0  0  0  0
  5 17  1  0  0  0  0
  5  6  1  0  0  0  0
  5 16  1  0  0  0  0
  6 20  1  0  0  0  0
  7 21  1  0  0  0  0
  7  4  2  0  0  0  0
  8  7  1  0  0  0  0
  9  8  2  0  0  0  0
  9 10  1  0  0  0  0
 10  3  2  0  0  0  0
 11 10  1  0  0  0  0
 12  9  1  0  0  0  0
 13  1  1  0  0  0  0
 18  6  1  0  0  0  0
 19  6  1  0  0  0  0
 22  8  1  0  0  0  0
 23 12  1  0  0  0  0
M  END
