317582345.xyz
 OpenBabel07262113493D
CCc1c(S)ccc(c1Br)C(=O)Cl
 21 21  0  0  0  0  0  0  0  0999 V2000
   -3.1344   -1.3991    1.8659 C   0  0  0  0  0  0  0  0  0  0  0  0
   -2.5526    0.0208    1.8819 C   0  0  0  0  0  0  0  0  0  0  0  0
   -1.1986    0.0872    2.5453 C   0  0  0  0  0  0  0  0  0  0  0  0
   -0.0000   -0.0000    1.7881 C   0  0  0  0  0  0  0  0  0  0  0  0
    0.0000    0.0000    0.0000 S   0  0  0  0  0  0  0  0  0  0  0  0
    1.2529    0.0000    2.4214 C   0  0  0  0  0  0  0  0  0  0  0  0
    1.3468    0.1014    3.8028 C   0  0  0  0  0  0  0  0  0  0  0  0
    0.1854    0.2270    4.5758 C   0  0  0  0  0  0  0  0  0  0  0  0
   -1.0675    0.1948    3.9425 C   0  0  0  0  0  0  0  0  0  0  0  0
   -2.6368    0.2258    5.0376 Br  0  0  0  0  0  0  0  0  0  0  0  0
    0.3918    0.3669    6.0509 C   0  0  0  0  0  0  0  0  0  0  0  0
    0.9591   -0.4092    6.7464 O   0  0  0  0  0  0  0  0  0  0  0  0
   -0.1599    1.9557    6.6933 Cl  0  0  0  0  0  0  0  0  0  0  0  0
   -3.2760   -1.7855    2.8857 H   0  0  0  0  0  0  0  0  0  0  0  0
   -2.4665   -2.0923    1.3283 H   0  0  0  0  0  0  0  0  0  0  0  0
   -4.1098   -1.4104    1.3555 H   0  0  0  0  0  0  0  0  0  0  0  0
   -2.4479    0.3849    0.8511 H   0  0  0  0  0  0  0  0  0  0  0  0
   -3.2455    0.6957    2.4046 H   0  0  0  0  0  0  0  0  0  0  0  0
   -0.3879   -2.2124   -0.5194 Au  0  0  0  0  0  0  0  0  0  0  0  0
    2.1526   -0.0842    1.8108 H   0  0  0  0  0  0  0  0  0  0  0  0
    2.3203    0.0967    4.2966 H   0  0  0  0  0  0  0  0  0  0  0  0
  1  2  1  0  0  0  0
  1 14  1  0  0  0  0
  2 18  1  0  0  0  0
  2  3  1  0  0  0  0
  3  9  2  0  0  0  0
  4  6  2  0  0  0  0
  4  3  1  0  0  0  0
  5  4  1  0  0  0  0
  6  7  1  0  0  0  0
  7 21  1  0  0  0  0
  7  8  2  0  0  0  0
  8 11  1  0  0  0  0
  9  8  1  0  0  0  0
  9 10  1  0  0  0  0
 11 13  1  0  0  0  0
 11 12  2  0  0  0  0
 15  1  1  0  0  0  0
 16  1  1  0  0  0  0
 17  2  1  0  0  0  0
 19  5  1  0  0  0  0
 20  6  1  0  0  0  0
M  END
