317637627.xyz
 OpenBabel07262113493D
FC(Oc1c(F)ccc(c1S)C(=O)Cl)F
 19 19  0  0  0  0  0  0  0  0999 V2000
   -2.7945    2.0039    1.6715 F   0  0  0  0  0  0  0  0  0  0  0  0
   -3.3322    0.7892    1.9551 C   0  0  0  0  0  0  0  0  0  0  0  0
   -2.3979   -0.2019    1.7471 O   0  0  0  0  0  0  0  0  0  0  0  0
   -1.2287   -0.1497    2.4565 C   0  0  0  0  0  0  0  0  0  0  0  0
   -1.2448   -0.3003    3.8484 C   0  0  0  0  0  0  0  0  0  0  0  0
   -2.4266   -0.4425    4.4629 F   0  0  0  0  0  0  0  0  0  0  0  0
   -0.0762   -0.3132    4.5979 C   0  0  0  0  0  0  0  0  0  0  0  0
    1.1422   -0.1742    3.9393 C   0  0  0  0  0  0  0  0  0  0  0  0
    1.1933    0.0000    2.5495 C   0  0  0  0  0  0  0  0  0  0  0  0
   -0.0000    0.0000    1.7807 C   0  0  0  0  0  0  0  0  0  0  0  0
    0.0000    0.0000    0.0000 S   0  0  0  0  0  0  0  0  0  0  0  0
    2.5087    0.2891    1.9070 C   0  0  0  0  0  0  0  0  0  0  0  0
    2.7386    1.0927    1.0671 O   0  0  0  0  0  0  0  0  0  0  0  0
    3.8605   -0.7273    2.5780 Cl  0  0  0  0  0  0  0  0  0  0  0  0
   -4.3276    0.5554    1.1019 F   0  0  0  0  0  0  0  0  0  0  0  0
   -3.7165    0.8194    2.9878 H   0  0  0  0  0  0  0  0  0  0  0  0
   -0.1371   -0.4403    5.6796 H   0  0  0  0  0  0  0  0  0  0  0  0
    2.0722   -0.1917    4.5069 H   0  0  0  0  0  0  0  0  0  0  0  0
   -0.1890    2.2585   -0.4185 Au  0  0  0  0  0  0  0  0  0  0  0  0
  1  2  1  0  0  0  0
  2 16  1  0  0  0  0
  3  2  1  0  0  0  0
  3  4  1  0  0  0  0
  4  5  1  0  0  0  0
  5  6  1  0  0  0  0
  5  7  2  0  0  0  0
  7 17  1  0  0  0  0
  8 18  1  0  0  0  0
  8  7  1  0  0  0  0
  9  8  2  0  0  0  0
 10  4  2  0  0  0  0
 10  9  1  0  0  0  0
 11 10  1  0  0  0  0
 12  9  1  0  0  0  0
 12 14  1  0  0  0  0
 13 12  2  0  0  0  0
 15  2  1  0  0  0  0
 19 11  1  0  0  0  0
M  END
