317622697.xyz
 OpenBabel07262113493D
N#Cc1cc(C(=O)Cl)c(cc1C(F)F)S
 19 19  0  0  0  0  0  0  0  0999 V2000
    0.3893    0.4476    7.1758 N   0  0  0  0  0  0  0  0  0  0  0  0
    0.3694    0.3565    6.0197 C   0  0  0  0  0  0  0  0  0  0  0  0
    0.2802    0.2448    4.5923 C   0  0  0  0  0  0  0  0  0  0  0  0
   -0.9844    0.2713    3.9931 C   0  0  0  0  0  0  0  0  0  0  0  0
   -1.1440    0.1456    2.6073 C   0  0  0  0  0  0  0  0  0  0  0  0
   -2.5253    0.1288    2.0407 C   0  0  0  0  0  0  0  0  0  0  0  0
   -2.9183   -0.5273    1.1319 O   0  0  0  0  0  0  0  0  0  0  0  0
   -3.6585    1.2554    2.8854 Cl  0  0  0  0  0  0  0  0  0  0  0  0
    0.0000   -0.0000    1.7802 C   0  0  0  0  0  0  0  0  0  0  0  0
    1.2650   -0.0000    2.3994 C   0  0  0  0  0  0  0  0  0  0  0  0
    1.4242    0.1154    3.7744 C   0  0  0  0  0  0  0  0  0  0  0  0
    2.8136    0.0923    4.3648 C   0  0  0  0  0  0  0  0  0  0  0  0
    2.9372   -0.9459    5.2302 F   0  0  0  0  0  0  0  0  0  0  0  0
    3.0488    1.2354    5.0564 F   0  0  0  0  0  0  0  0  0  0  0  0
    0.0000    0.0000    0.0000 S   0  0  0  0  0  0  0  0  0  0  0  0
   -1.8652    0.3941    4.6221 H   0  0  0  0  0  0  0  0  0  0  0  0
    2.1442   -0.1017    1.7603 H   0  0  0  0  0  0  0  0  0  0  0  0
    3.5865   -0.0096    3.5839 H   0  0  0  0  0  0  0  0  0  0  0  0
   -0.8892   -2.0681   -0.5175 Au  0  0  0  0  0  0  0  0  0  0  0  0
  2  1  3  0  0  0  0
  3  2  1  0  0  0  0
  4  3  1  0  0  0  0
  4 16  1  0  0  0  0
  5  4  2  0  0  0  0
  6  5  1  0  0  0  0
  6  8  1  0  0  0  0
  7  6  2  0  0  0  0
  9 10  2  0  0  0  0
  9  5  1  0  0  0  0
 10 11  1  0  0  0  0
 11 12  1  0  0  0  0
 11  3  2  0  0  0  0
 12 14  1  0  0  0  0
 12 13  1  0  0  0  0
 15  9  1  0  0  0  0
 17 10  1  0  0  0  0
 18 12  1  0  0  0  0
 19 15  1  0  0  0  0
M  END
