317660790.xyz
 OpenBabel07262113503D
ClC(=O)c1c(ccc(c1C(F)(F)F)S)C(F)(F)F
 21 21  0  0  0  0  0  0  0  0999 V2000
    2.8260    1.4135    5.5624 Cl  0  0  0  0  0  0  0  0  0  0  0  0
    2.2835   -0.1486    4.8731 C   0  0  0  0  0  0  0  0  0  0  0  0
    2.8197   -1.1735    5.1192 O   0  0  0  0  0  0  0  0  0  0  0  0
    1.0637    0.0097    3.9923 C   0  0  0  0  0  0  0  0  0  0  0  0
   -0.2080    0.0794    4.5983 C   0  0  0  0  0  0  0  0  0  0  0  0
   -1.3536    0.1166    3.8031 C   0  0  0  0  0  0  0  0  0  0  0  0
   -1.2507    0.0648    2.4192 C   0  0  0  0  0  0  0  0  0  0  0  0
    0.0000    0.0000    1.7923 C   0  0  0  0  0  0  0  0  0  0  0  0
    1.1728    0.0000    2.5878 C   0  0  0  0  0  0  0  0  0  0  0  0
    2.5360    0.0167    1.9015 C   0  0  0  0  0  0  0  0  0  0  0  0
    2.6305    1.0305    1.0362 F   0  0  0  0  0  0  0  0  0  0  0  0
    3.5450    0.1675    2.7745 F   0  0  0  0  0  0  0  0  0  0  0  0
    2.7679   -1.1267    1.2357 F   0  0  0  0  0  0  0  0  0  0  0  0
    0.0000    0.0000    0.0000 S   0  0  0  0  0  0  0  0  0  0  0  0
   -0.3964    0.1836    6.1011 C   0  0  0  0  0  0  0  0  0  0  0  0
    0.4841   -0.5644    6.7813 F   0  0  0  0  0  0  0  0  0  0  0  0
   -1.6258   -0.2226    6.4595 F   0  0  0  0  0  0  0  0  0  0  0  0
   -0.2623    1.4510    6.5200 F   0  0  0  0  0  0  0  0  0  0  0  0
   -2.3337    0.1680    4.2773 H   0  0  0  0  0  0  0  0  0  0  0  0
   -2.1462    0.0690    1.7970 H   0  0  0  0  0  0  0  0  0  0  0  0
    0.1848   -2.2529   -0.4500 Au  0  0  0  0  0  0  0  0  0  0  0  0
  2  3  2  0  0  0  0
  2  1  1  0  0  0  0
  4  5  1  0  0  0  0
  4  2  1  0  0  0  0
  5 15  1  0  0  0  0
  6 19  1  0  0  0  0
  6  5  2  0  0  0  0
  7  6  1  0  0  0  0
  8  7  2  0  0  0  0
  8  9  1  0  0  0  0
  9  4  2  0  0  0  0
 10  9  1  0  0  0  0
 10 12  1  0  0  0  0
 11 10  1  0  0  0  0
 13 10  1  0  0  0  0
 14  8  1  0  0  0  0
 15 17  1  0  0  0  0
 15 18  1  0  0  0  0
 15 16  1  0  0  0  0
 20  7  1  0  0  0  0
 21 14  1  0  0  0  0
M  END
