317663352.xyz
 OpenBabel07262113503D
COc1cc(C(=O)Cl)c(cc1S)OC
 23 23  0  0  0  0  0  0  0  0999 V2000
    3.5673   -0.1253    2.6165 C   0  0  0  0  0  0  0  0  0  0  0  0
    2.3612   -0.1415    1.8835 O   0  0  0  0  0  0  0  0  0  0  0  0
    1.1877   -0.0000    2.5438 C   0  0  0  0  0  0  0  0  0  0  0  0
    1.0828    0.1206    3.9254 C   0  0  0  0  0  0  0  0  0  0  0  0
   -0.1582    0.2780    4.5749 C   0  0  0  0  0  0  0  0  0  0  0  0
   -0.0578    0.4360    6.0477 C   0  0  0  0  0  0  0  0  0  0  0  0
    0.8720    0.0698    6.7025 O   0  0  0  0  0  0  0  0  0  0  0  0
   -1.3727    1.3632    6.8496 Cl  0  0  0  0  0  0  0  0  0  0  0  0
   -1.3466    0.2397    3.8053 C   0  0  0  0  0  0  0  0  0  0  0  0
   -1.2397    0.0935    2.4146 C   0  0  0  0  0  0  0  0  0  0  0  0
    0.0000    0.0000    1.7679 C   0  0  0  0  0  0  0  0  0  0  0  0
    0.0000    0.0000    0.0000 S   0  0  0  0  0  0  0  0  0  0  0  0
   -2.5310    0.2925    4.4422 O   0  0  0  0  0  0  0  0  0  0  0  0
   -3.7303    0.3013    3.7004 C   0  0  0  0  0  0  0  0  0  0  0  0
    4.3759   -0.2388    1.8832 H   0  0  0  0  0  0  0  0  0  0  0  0
    3.6986    0.8282    3.1569 H   0  0  0  0  0  0  0  0  0  0  0  0
    3.6154   -0.9564    3.3418 H   0  0  0  0  0  0  0  0  0  0  0  0
    1.9688    0.1204    4.5571 H   0  0  0  0  0  0  0  0  0  0  0  0
   -2.1336    0.0388    1.7965 H   0  0  0  0  0  0  0  0  0  0  0  0
    1.3915   -1.7592   -0.5421 Au  0  0  0  0  0  0  0  0  0  0  0  0
   -4.5419    0.3968    4.4330 H   0  0  0  0  0  0  0  0  0  0  0  0
   -3.8661   -0.6350    3.1309 H   0  0  0  0  0  0  0  0  0  0  0  0
   -3.7714    1.1552    3.0018 H   0  0  0  0  0  0  0  0  0  0  0  0
  1 16  1  0  0  0  0
  1 17  1  0  0  0  0
  2  3  1  0  0  0  0
  2  1  1  0  0  0  0
  3  4  2  0  0  0  0
  4 18  1  0  0  0  0
  4  5  1  0  0  0  0
  5  6  1  0  0  0  0
  6  7  2  0  0  0  0
  6  8  1  0  0  0  0
  9 13  1  0  0  0  0
  9  5  2  0  0  0  0
 10  9  1  0  0  0  0
 11 10  2  0  0  0  0
 11  3  1  0  0  0  0
 12 11  1  0  0  0  0
 14 21  1  0  0  0  0
 14 13  1  0  0  0  0
 15  1  1  0  0  0  0
 19 10  1  0  0  0  0
 20 12  1  0  0  0  0
 22 14  1  0  0  0  0
 23 14  1  0  0  0  0
M  END
