317698032.xyz
 OpenBabel07262113503D
CC(c1ccc(cc1)Cc1nnc([nH]1)S)(C)C
 34 35  0  0  0  0  0  0  0  0999 V2000
    5.6454   -4.8222    2.9538 C   0  0  0  0  0  0  0  0  0  0  0  0
    5.9257   -4.0488    4.2597 C   0  0  0  0  0  0  0  0  0  0  0  0
    4.8456   -2.9743    4.4538 C   0  0  0  0  0  0  0  0  0  0  0  0
    5.1353   -1.6070    4.5389 C   0  0  0  0  0  0  0  0  0  0  0  0
    4.1216   -0.6574    4.7166 C   0  0  0  0  0  0  0  0  0  0  0  0
    2.7825   -1.0410    4.8182 C   0  0  0  0  0  0  0  0  0  0  0  0
    2.4824   -2.4097    4.7303 C   0  0  0  0  0  0  0  0  0  0  0  0
    3.4921   -3.3507    4.5545 C   0  0  0  0  0  0  0  0  0  0  0  0
    1.6751   -0.0197    4.9774 C   0  0  0  0  0  0  0  0  0  0  0  0
    0.7352   -0.0113    3.8147 C   0  0  0  0  0  0  0  0  0  0  0  0
   -0.5732   -0.0152    3.8548 N   0  0  0  0  0  0  0  0  0  0  0  0
   -1.0416   -0.0030    2.5649 N   0  0  0  0  0  0  0  0  0  0  0  0
    0.0000   -0.0000    1.7554 C   0  0  0  0  0  0  0  0  0  0  0  0
    1.1499   -0.0000    2.5005 N   0  0  0  0  0  0  0  0  0  0  0  0
    0.0000    0.0000    0.0000 S   0  0  0  0  0  0  0  0  0  0  0  0
    7.3352   -3.4445    4.1701 C   0  0  0  0  0  0  0  0  0  0  0  0
    5.8913   -5.0253    5.4544 C   0  0  0  0  0  0  0  0  0  0  0  0
    5.6638   -4.1451    2.0855 H   0  0  0  0  0  0  0  0  0  0  0  0
    6.4089   -5.6013    2.7974 H   0  0  0  0  0  0  0  0  0  0  0  0
    4.6625   -5.3160    2.9738 H   0  0  0  0  0  0  0  0  0  0  0  0
    6.1649   -1.2571    4.4686 H   0  0  0  0  0  0  0  0  0  0  0  0
    4.3859    0.4021    4.7829 H   0  0  0  0  0  0  0  0  0  0  0  0
    1.4408   -2.7361    4.7964 H   0  0  0  0  0  0  0  0  0  0  0  0
    3.2171   -4.4058    4.4937 H   0  0  0  0  0  0  0  0  0  0  0  0
    1.0641   -0.2240    5.8691 H   0  0  0  0  0  0  0  0  0  0  0  0
    2.1147    0.9831    5.1121 H   0  0  0  0  0  0  0  0  0  0  0  0
    2.1036   -0.0546    2.1631 H   0  0  0  0  0  0  0  0  0  0  0  0
   -2.3129   -0.0231   -0.2036 Au  0  0  0  0  0  0  0  0  0  0  0  0
    8.0757   -4.2471    4.0314 H   0  0  0  0  0  0  0  0  0  0  0  0
    7.6050   -2.8987    5.0873 H   0  0  0  0  0  0  0  0  0  0  0  0
    7.4306   -2.7539    3.3180 H   0  0  0  0  0  0  0  0  0  0  0  0
    6.6589   -5.8068    5.3340 H   0  0  0  0  0  0  0  0  0  0  0  0
    6.0865   -4.4949    6.3995 H   0  0  0  0  0  0  0  0  0  0  0  0
    4.9157   -5.5256    5.5454 H   0  0  0  0  0  0  0  0  0  0  0  0
  1 20  1  0  0  0  0
  1  2  1  0  0  0  0
  2  3  1  0  0  0  0
  2 17  1  0  0  0  0
  3  4  2  0  0  0  0
  3  8  1  0  0  0  0
  4  5  1  0  0  0  0
  5 22  1  0  0  0  0
  5  6  2  0  0  0  0
  6  9  1  0  0  0  0
  7 23  1  0  0  0  0
  7  6  1  0  0  0  0
  8  7  2  0  0  0  0
  9 26  1  0  0  0  0
  9 25  1  0  0  0  0
 10 11  2  0  0  0  0
 10  9  1  0  0  0  0
 12 11  1  0  0  0  0
 13 14  1  0  0  0  0
 13 12  2  0  0  0  0
 14 10  1  0  0  0  0
 15 13  1  0  0  0  0
 16  2  1  0  0  0  0
 16 30  1  0  0  0  0
 17 34  1  0  0  0  0
 17 33  1  0  0  0  0
 18  1  1  0  0  0  0
 19  1  1  0  0  0  0
 21  4  1  0  0  0  0
 24  8  1  0  0  0  0
 27 14  1  0  0  0  0
 28 15  1  0  0  0  0
 29 16  1  0  0  0  0
 31 16  1  0  0  0  0
 32 17  1  0  0  0  0
M  END
