317680766.xyz
 OpenBabel07262113503D
COc1cc(OC(F)(F)F)c(cc1S)C(=O)Cl
 23 23  0  0  0  0  0  0  0  0999 V2000
    3.5833   -0.1318    2.5524 C   0  0  0  0  0  0  0  0  0  0  0  0
    2.3487   -0.1480    1.8582 O   0  0  0  0  0  0  0  0  0  0  0  0
    1.2023   -0.0000    2.5314 C   0  0  0  0  0  0  0  0  0  0  0  0
    1.1363    0.1149    3.9265 C   0  0  0  0  0  0  0  0  0  0  0  0
   -0.0938    0.2610    4.5617 C   0  0  0  0  0  0  0  0  0  0  0  0
   -0.1126    0.3133    5.9431 O   0  0  0  0  0  0  0  0  0  0  0  0
    0.2447    1.4660    6.5618 C   0  0  0  0  0  0  0  0  0  0  0  0
   -0.3541    2.5339    6.0339 F   0  0  0  0  0  0  0  0  0  0  0  0
   -0.0741    1.3610    7.8386 F   0  0  0  0  0  0  0  0  0  0  0  0
    1.5749    1.6793    6.4744 F   0  0  0  0  0  0  0  0  0  0  0  0
   -1.3033    0.2606    3.8376 C   0  0  0  0  0  0  0  0  0  0  0  0
   -1.2177    0.1047    2.4430 C   0  0  0  0  0  0  0  0  0  0  0  0
   -0.0000   -0.0000    1.7713 C   0  0  0  0  0  0  0  0  0  0  0  0
    0.0000    0.0000    0.0000 S   0  0  0  0  0  0  0  0  0  0  0  0
   -2.5955    0.4396    4.5428 C   0  0  0  0  0  0  0  0  0  0  0  0
   -2.7610    0.8137    5.6578 O   0  0  0  0  0  0  0  0  0  0  0  0
   -4.0519    0.0107    3.5334 Cl  0  0  0  0  0  0  0  0  0  0  0  0
    4.3637   -0.2416    1.7897 H   0  0  0  0  0  0  0  0  0  0  0  0
    3.7272    0.8209    3.0888 H   0  0  0  0  0  0  0  0  0  0  0  0
    3.6531   -0.9677    3.2687 H   0  0  0  0  0  0  0  0  0  0  0  0
    2.0305    0.0964    4.5443 H   0  0  0  0  0  0  0  0  0  0  0  0
   -2.1367    0.0790    1.8599 H   0  0  0  0  0  0  0  0  0  0  0  0
    1.0376   -1.9908   -0.5252 Au  0  0  0  0  0  0  0  0  0  0  0  0
  1 19  1  0  0  0  0
  1 20  1  0  0  0  0
  2  3  1  0  0  0  0
  2  1  1  0  0  0  0
  3  4  2  0  0  0  0
  4 21  1  0  0  0  0
  4  5  1  0  0  0  0
  5  6  1  0  0  0  0
  6  7  1  0  0  0  0
  7  9  1  0  0  0  0
  8  7  1  0  0  0  0
 10  7  1  0  0  0  0
 11 15  1  0  0  0  0
 11  5  2  0  0  0  0
 12 11  1  0  0  0  0
 13 12  2  0  0  0  0
 13  3  1  0  0  0  0
 14 13  1  0  0  0  0
 15 16  2  0  0  0  0
 17 15  1  0  0  0  0
 18  1  1  0  0  0  0
 22 12  1  0  0  0  0
 23 14  1  0  0  0  0
M  END
