317673052.xyz
 OpenBabel07262113503D
COc1c(S)ccc(c1C(F)F)C(=O)Cl
 22 22  0  0  0  0  0  0  0  0999 V2000
   -2.9536   -1.2075    1.4721 C   0  0  0  0  0  0  0  0  0  0  0  0
   -2.4071    0.0267    1.9522 O   0  0  0  0  0  0  0  0  0  0  0  0
   -1.1826   -0.0614    2.5474 C   0  0  0  0  0  0  0  0  0  0  0  0
   -0.0000    0.0000    1.7743 C   0  0  0  0  0  0  0  0  0  0  0  0
    0.0000    0.0000    0.0000 S   0  0  0  0  0  0  0  0  0  0  0  0
    1.2345    0.0000    2.4408 C   0  0  0  0  0  0  0  0  0  0  0  0
    1.2958   -0.0964    3.8279 C   0  0  0  0  0  0  0  0  0  0  0  0
    0.1226   -0.1862    4.5887 C   0  0  0  0  0  0  0  0  0  0  0  0
   -1.1280   -0.1299    3.9473 C   0  0  0  0  0  0  0  0  0  0  0  0
   -2.4466   -0.0800    4.6840 C   0  0  0  0  0  0  0  0  0  0  0  0
   -2.9955   -1.3250    4.7999 F   0  0  0  0  0  0  0  0  0  0  0  0
   -2.2868    0.4240    5.9355 F   0  0  0  0  0  0  0  0  0  0  0  0
    0.3179   -0.3390    6.0640 C   0  0  0  0  0  0  0  0  0  0  0  0
    0.9873    0.3598    6.7509 O   0  0  0  0  0  0  0  0  0  0  0  0
   -0.4166   -1.8512    6.7110 Cl  0  0  0  0  0  0  0  0  0  0  0  0
   -3.1379   -1.8934    2.3139 H   0  0  0  0  0  0  0  0  0  0  0  0
   -3.9028   -0.9567    0.9813 H   0  0  0  0  0  0  0  0  0  0  0  0
   -2.2758   -1.6734    0.7405 H   0  0  0  0  0  0  0  0  0  0  0  0
   -1.4975    1.6835   -0.5061 Au  0  0  0  0  0  0  0  0  0  0  0  0
    2.1511    0.0802    1.8535 H   0  0  0  0  0  0  0  0  0  0  0  0
    2.2618   -0.1060    4.3354 H   0  0  0  0  0  0  0  0  0  0  0  0
   -3.1685    0.5518    4.1461 H   0  0  0  0  0  0  0  0  0  0  0  0
  1  2  1  0  0  0  0
  1 16  1  0  0  0  0
  2  3  1  0  0  0  0
  3  9  2  0  0  0  0
  4  6  2  0  0  0  0
  4  3  1  0  0  0  0
  5  4  1  0  0  0  0
  6  7  1  0  0  0  0
  7 21  1  0  0  0  0
  7  8  2  0  0  0  0
  8 13  1  0  0  0  0
  9  8  1  0  0  0  0
  9 10  1  0  0  0  0
 10 11  1  0  0  0  0
 10 12  1  0  0  0  0
 13 15  1  0  0  0  0
 13 14  2  0  0  0  0
 17  1  1  0  0  0  0
 18  1  1  0  0  0  0
 19  5  1  0  0  0  0
 20  6  1  0  0  0  0
 22 10  1  0  0  0  0
M  END
