317675898.xyz
 OpenBabel07262113503D
ClCC(=O)c1cc(C)c(cc1S)OC
 25 25  0  0  0  0  0  0  0  0999 V2000
   -2.2565   -2.4534    0.8375 Cl  0  0  0  0  0  0  0  0  0  0  0  0
   -2.9906   -0.8085    0.8508 C   0  0  0  0  0  0  0  0  0  0  0  0
   -2.5858   -0.0005    2.0801 C   0  0  0  0  0  0  0  0  0  0  0  0
   -3.4573    0.5842    2.6924 O   0  0  0  0  0  0  0  0  0  0  0  0
   -1.1711    0.0129    2.5750 C   0  0  0  0  0  0  0  0  0  0  0  0
   -1.0290    0.0760    3.9738 C   0  0  0  0  0  0  0  0  0  0  0  0
    0.2042    0.0691    4.6158 C   0  0  0  0  0  0  0  0  0  0  0  0
    0.3379    0.1115    6.1108 C   0  0  0  0  0  0  0  0  0  0  0  0
    1.3655    0.0180    3.8089 C   0  0  0  0  0  0  0  0  0  0  0  0
    1.2570   -0.0000    2.4159 C   0  0  0  0  0  0  0  0  0  0  0  0
    0.0000   -0.0000    1.7880 C   0  0  0  0  0  0  0  0  0  0  0  0
    0.0000    0.0000    0.0000 S   0  0  0  0  0  0  0  0  0  0  0  0
    2.5419    0.0045    4.4756 O   0  0  0  0  0  0  0  0  0  0  0  0
    3.7498   -0.0503    3.7465 C   0  0  0  0  0  0  0  0  0  0  0  0
   -4.0812   -0.9161    0.8759 H   0  0  0  0  0  0  0  0  0  0  0  0
   -2.6706   -0.3031   -0.0685 H   0  0  0  0  0  0  0  0  0  0  0  0
   -1.9423    0.1231    4.5702 H   0  0  0  0  0  0  0  0  0  0  0  0
    0.9332    0.9828    6.4287 H   0  0  0  0  0  0  0  0  0  0  0  0
    0.8711   -0.7782    6.4836 H   0  0  0  0  0  0  0  0  0  0  0  0
   -0.6470    0.1610    6.5951 H   0  0  0  0  0  0  0  0  0  0  0  0
    2.1415    0.0027    1.7822 H   0  0  0  0  0  0  0  0  0  0  0  0
   -0.1090    2.2560   -0.4663 Au  0  0  0  0  0  0  0  0  0  0  0  0
    4.5602   -0.0655    4.4865 H   0  0  0  0  0  0  0  0  0  0  0  0
    3.8716    0.8328    3.0952 H   0  0  0  0  0  0  0  0  0  0  0  0
    3.8082   -0.9616    3.1262 H   0  0  0  0  0  0  0  0  0  0  0  0
  1  2  1  0  0  0  0
  2 15  1  0  0  0  0
  2  3  1  0  0  0  0
  3  5  1  0  0  0  0
  3  4  2  0  0  0  0
  5  6  2  0  0  0  0
  6 17  1  0  0  0  0
  6  7  1  0  0  0  0
  7  8  1  0  0  0  0
  8 18  1  0  0  0  0
  8 19  1  0  0  0  0
  8 20  1  0  0  0  0
  9 13  1  0  0  0  0
  9  7  2  0  0  0  0
 10  9  1  0  0  0  0
 11 10  2  0  0  0  0
 11  5  1  0  0  0  0
 12 11  1  0  0  0  0
 14 13  1  0  0  0  0
 14 23  1  0  0  0  0
 16  2  1  0  0  0  0
 21 10  1  0  0  0  0
 22 12  1  0  0  0  0
 24 14  1  0  0  0  0
 25 14  1  0  0  0  0
M  END
