317680759.xyz
 OpenBabel07262113503D
N#CCc1c(S)cc(cc1[N+](=O)[O-])OC
 23 23  0  0  0  0  0  0  0  0999 V2000
   -3.3028   -2.4036    1.3418 N   0  0  0  0  0  0  0  0  0  0  0  0
   -2.9933   -1.3135    1.5947 C   0  0  0  0  0  0  0  0  0  0  0  0
   -2.5421    0.0527    1.8755 C   0  0  0  0  0  0  0  0  0  0  0  0
   -1.1869    0.0709    2.5575 C   0  0  0  0  0  0  0  0  0  0  0  0
   -0.0000    0.0000    1.7905 C   0  0  0  0  0  0  0  0  0  0  0  0
    0.0000    0.0000    0.0000 S   0  0  0  0  0  0  0  0  0  0  0  0
    1.2634   -0.0000    2.4078 C   0  0  0  0  0  0  0  0  0  0  0  0
    1.3820    0.0476    3.8006 C   0  0  0  0  0  0  0  0  0  0  0  0
    0.2183    0.0717    4.5805 C   0  0  0  0  0  0  0  0  0  0  0  0
   -1.0223    0.0918    3.9563 C   0  0  0  0  0  0  0  0  0  0  0  0
   -2.1798    0.1400    4.8856 N   0  0  0  0  0  0  0  0  0  0  0  0
   -2.0620   -0.4493    5.9435 O   0  0  0  0  0  0  0  0  0  0  0  0
   -3.1630    0.7874    4.5566 O   0  0  0  0  0  0  0  0  0  0  0  0
    2.5510    0.0530    4.4709 O   0  0  0  0  0  0  0  0  0  0  0  0
    3.7614    0.0093    3.7418 C   0  0  0  0  0  0  0  0  0  0  0  0
   -3.2956    0.5627    2.4854 H   0  0  0  0  0  0  0  0  0  0  0  0
   -2.4534    0.5690    0.9064 H   0  0  0  0  0  0  0  0  0  0  0  0
   -0.9282   -2.0807   -0.4419 Au  0  0  0  0  0  0  0  0  0  0  0  0
    2.1406   -0.0544    1.7662 H   0  0  0  0  0  0  0  0  0  0  0  0
    0.2892    0.0714    5.6665 H   0  0  0  0  0  0  0  0  0  0  0  0
    3.8642    0.8822    3.0738 H   0  0  0  0  0  0  0  0  0  0  0  0
    4.5703    0.0262    4.4830 H   0  0  0  0  0  0  0  0  0  0  0  0
    3.8400   -0.9137    3.1414 H   0  0  0  0  0  0  0  0  0  0  0  0
  1  2  3  0  0  0  0
  2  3  1  0  0  0  0
  3 16  1  0  0  0  0
  3  4  1  0  0  0  0
  4 10  2  0  0  0  0
  5  7  2  0  0  0  0
  5  4  1  0  0  0  0
  6  5  1  0  0  0  0
  7  8  1  0  0  0  0
  8 14  1  0  0  0  0
  8  9  2  0  0  0  0
  9 20  1  0  0  0  0
 10  9  1  0  0  0  0
 10 11  1  0  0  0  0
 11 12  2  0  0  0  0
 13 11  2  0  0  0  0
 15 14  1  0  0  0  0
 15 22  1  0  0  0  0
 17  3  1  0  0  0  0
 18  6  1  0  0  0  0
 19  7  1  0  0  0  0
 21 15  1  0  0  0  0
 23 15  1  0  0  0  0
M  END
