317674077.xyz
 OpenBabel07262113503D
ClCC(=O)c1cc(S)c(cc1C)C(F)F
 24 24  0  0  0  0  0  0  0  0999 V2000
   -5.4316   -0.4035    4.4397 Cl  0  0  0  0  0  0  0  0  0  0  0  0
   -3.8882   -0.2838    3.5595 C   0  0  0  0  0  0  0  0  0  0  0  0
   -2.6727   -0.2826    4.4974 C   0  0  0  0  0  0  0  0  0  0  0  0
   -2.8152   -0.3590    5.6966 O   0  0  0  0  0  0  0  0  0  0  0  0
   -1.3229   -0.1826    3.8483 C   0  0  0  0  0  0  0  0  0  0  0  0
   -1.2274   -0.0930    2.4498 C   0  0  0  0  0  0  0  0  0  0  0  0
   -0.0000   -0.0000    1.7851 C   0  0  0  0  0  0  0  0  0  0  0  0
    0.0000    0.0000    0.0000 S   0  0  0  0  0  0  0  0  0  0  0  0
    1.1794   -0.0000    2.5558 C   0  0  0  0  0  0  0  0  0  0  0  0
    1.0892   -0.0795    3.9444 C   0  0  0  0  0  0  0  0  0  0  0  0
   -0.1333   -0.1716    4.6259 C   0  0  0  0  0  0  0  0  0  0  0  0
   -0.1111   -0.2532    6.1274 C   0  0  0  0  0  0  0  0  0  0  0  0
    2.5337    0.1275    1.9030 C   0  0  0  0  0  0  0  0  0  0  0  0
    3.5142   -0.3264    2.7260 F   0  0  0  0  0  0  0  0  0  0  0  0
    2.8051    1.4463    1.6509 F   0  0  0  0  0  0  0  0  0  0  0  0
   -3.8250   -1.1310    2.8617 H   0  0  0  0  0  0  0  0  0  0  0  0
   -3.9049    0.6394    2.9628 H   0  0  0  0  0  0  0  0  0  0  0  0
   -2.1223   -0.0904    1.8292 H   0  0  0  0  0  0  0  0  0  0  0  0
    0.4966    2.1956   -0.5092 Au  0  0  0  0  0  0  0  0  0  0  0  0
    2.0151   -0.0837    4.5215 H   0  0  0  0  0  0  0  0  0  0  0  0
   -0.5978   -1.1713    6.4874 H   0  0  0  0  0  0  0  0  0  0  0  0
    0.9252   -0.2260    6.4930 H   0  0  0  0  0  0  0  0  0  0  0  0
   -0.6769    0.5722    6.5833 H   0  0  0  0  0  0  0  0  0  0  0  0
    2.5862   -0.4167    0.9476 H   0  0  0  0  0  0  0  0  0  0  0  0
  2  1  1  0  0  0  0
  2  3  1  0  0  0  0
  3  4  2  0  0  0  0
  5  3  1  0  0  0  0
  5 11  2  0  0  0  0
  6  5  1  0  0  0  0
  7  6  2  0  0  0  0
  7  9  1  0  0  0  0
  8  7  1  0  0  0  0
  9 10  2  0  0  0  0
 10 20  1  0  0  0  0
 10 11  1  0  0  0  0
 11 12  1  0  0  0  0
 12 21  1  0  0  0  0
 12 22  1  0  0  0  0
 12 23  1  0  0  0  0
 13  9  1  0  0  0  0
 13 14  1  0  0  0  0
 15 13  1  0  0  0  0
 16  2  1  0  0  0  0
 17  2  1  0  0  0  0
 18  6  1  0  0  0  0
 19  8  1  0  0  0  0
 24 13  1  0  0  0  0
M  END
