317664632.xyz
 OpenBabel07262113503D
COc1cc(OC)c(c(c1)C(=O)Cl)S
 23 23  0  0  0  0  0  0  0  0999 V2000
   -0.9420   -0.6938    6.7026 C   0  0  0  0  0  0  0  0  0  0  0  0
    0.2126   -0.5003    5.9111 O   0  0  0  0  0  0  0  0  0  0  0  0
    0.0750   -0.3374    4.5785 C   0  0  0  0  0  0  0  0  0  0  0  0
    1.2679   -0.1633    3.8585 C   0  0  0  0  0  0  0  0  0  0  0  0
    1.2404    0.0000    2.4735 C   0  0  0  0  0  0  0  0  0  0  0  0
    2.3474    0.1784    1.7335 O   0  0  0  0  0  0  0  0  0  0  0  0
    3.6137    0.1629    2.3559 C   0  0  0  0  0  0  0  0  0  0  0  0
    0.0000    0.0000    1.7671 C   0  0  0  0  0  0  0  0  0  0  0  0
   -1.1821   -0.1386    2.5233 C   0  0  0  0  0  0  0  0  0  0  0  0
   -1.1540   -0.3320    3.9117 C   0  0  0  0  0  0  0  0  0  0  0  0
   -2.5156    0.0169    1.8670 C   0  0  0  0  0  0  0  0  0  0  0  0
   -2.8481    0.8450    1.0897 O   0  0  0  0  0  0  0  0  0  0  0  0
   -3.7261   -1.2296    2.4320 Cl  0  0  0  0  0  0  0  0  0  0  0  0
    0.0000    0.0000    0.0000 S   0  0  0  0  0  0  0  0  0  0  0  0
   -1.6235    0.1728    6.6455 H   0  0  0  0  0  0  0  0  0  0  0  0
   -0.5937   -0.8093    7.7369 H   0  0  0  0  0  0  0  0  0  0  0  0
   -1.4924   -1.6023    6.4022 H   0  0  0  0  0  0  0  0  0  0  0  0
    2.1992   -0.1706    4.4215 H   0  0  0  0  0  0  0  0  0  0  0  0
    3.7137    0.9762    3.0959 H   0  0  0  0  0  0  0  0  0  0  0  0
    4.3509    0.3109    1.5567 H   0  0  0  0  0  0  0  0  0  0  0  0
    3.8083   -0.8022    2.8553 H   0  0  0  0  0  0  0  0  0  0  0  0
   -2.0923   -0.4695    4.4424 H   0  0  0  0  0  0  0  0  0  0  0  0
    0.1445    2.2482   -0.4955 Au  0  0  0  0  0  0  0  0  0  0  0  0
  1 16  1  0  0  0  0
  2  1  1  0  0  0  0
  3  2  1  0  0  0  0
  4 18  1  0  0  0  0
  4  3  2  0  0  0  0
  5  4  1  0  0  0  0
  6  7  1  0  0  0  0
  6  5  1  0  0  0  0
  7 21  1  0  0  0  0
  7 19  1  0  0  0  0
  8  5  2  0  0  0  0
  8  9  1  0  0  0  0
  9 10  2  0  0  0  0
 10 22  1  0  0  0  0
 10  3  1  0  0  0  0
 11 13  1  0  0  0  0
 11  9  1  0  0  0  0
 12 11  2  0  0  0  0
 14  8  1  0  0  0  0
 15  1  1  0  0  0  0
 17  1  1  0  0  0  0
 20  7  1  0  0  0  0
 23 14  1  0  0  0  0
M  END
