317636545.xyz
 OpenBabel07262113493D
ClCC(=O)c1ccc(c(c1S)C)C#N
 22 22  0  0  0  0  0  0  0  0999 V2000
    2.0484    2.9041    1.5615 Cl  0  0  0  0  0  0  0  0  0  0  0  0
    2.8443    1.4068    0.9456 C   0  0  0  0  0  0  0  0  0  0  0  0
    2.5775    0.1911    1.8306 C   0  0  0  0  0  0  0  0  0  0  0  0
    3.4888   -0.5667    2.0726 O   0  0  0  0  0  0  0  0  0  0  0  0
    1.2287    0.0000    2.4786 C   0  0  0  0  0  0  0  0  0  0  0  0
    1.2515   -0.2046    3.8644 C   0  0  0  0  0  0  0  0  0  0  0  0
    0.0657   -0.3307    4.5732 C   0  0  0  0  0  0  0  0  0  0  0  0
   -1.1642   -0.2816    3.8932 C   0  0  0  0  0  0  0  0  0  0  0  0
   -1.2222   -0.1355    2.4887 C   0  0  0  0  0  0  0  0  0  0  0  0
    0.0000   -0.0000    1.7843 C   0  0  0  0  0  0  0  0  0  0  0  0
    0.0000    0.0000    0.0000 S   0  0  0  0  0  0  0  0  0  0  0  0
   -2.5395   -0.1064    1.7723 C   0  0  0  0  0  0  0  0  0  0  0  0
   -2.3730   -0.4009    4.6597 C   0  0  0  0  0  0  0  0  0  0  0  0
   -3.3416   -0.4952    5.2928 N   0  0  0  0  0  0  0  0  0  0  0  0
    3.9271    1.5772    0.9274 H   0  0  0  0  0  0  0  0  0  0  0  0
    2.4670    1.2234   -0.0674 H   0  0  0  0  0  0  0  0  0  0  0  0
    2.2131   -0.2457    4.3781 H   0  0  0  0  0  0  0  0  0  0  0  0
    0.0751   -0.4674    5.6555 H   0  0  0  0  0  0  0  0  0  0  0  0
   -0.6234    2.1845   -0.4542 Au  0  0  0  0  0  0  0  0  0  0  0  0
   -2.5416   -0.8153    0.9320 H   0  0  0  0  0  0  0  0  0  0  0  0
   -3.3753   -0.3331    2.4455 H   0  0  0  0  0  0  0  0  0  0  0  0
   -2.7098    0.8908    1.3289 H   0  0  0  0  0  0  0  0  0  0  0  0
  2  1  1  0  0  0  0
  2  3  1  0  0  0  0
  3  4  2  0  0  0  0
  3  5  1  0  0  0  0
  5  6  1  0  0  0  0
  6 17  1  0  0  0  0
  6  7  2  0  0  0  0
  7 18  1  0  0  0  0
  8  7  1  0  0  0  0
  8 13  1  0  0  0  0
  9  8  2  0  0  0  0
 10  5  2  0  0  0  0
 10  9  1  0  0  0  0
 11 10  1  0  0  0  0
 12 21  1  0  0  0  0
 12  9  1  0  0  0  0
 13 14  3  0  0  0  0
 15  2  1  0  0  0  0
 16  2  1  0  0  0  0
 19 11  1  0  0  0  0
 20 12  1  0  0  0  0
 22 12  1  0  0  0  0
M  END
