317634247.xyz
 OpenBabel07262113493D
N#Cc1cc([N+](=O)[O-])c(cc1S)C(=O)Cl
 18 18  0  0  0  0  0  0  0  0999 V2000
    3.5790   -0.0004    1.8343 N   0  0  0  0  0  0  0  0  0  0  0  0
    2.4694   -0.0002    2.1889 C   0  0  0  0  0  0  0  0  0  0  0  0
    1.1152   -0.0000    2.6460 C   0  0  0  0  0  0  0  0  0  0  0  0
    0.9096    0.0134    4.0358 C   0  0  0  0  0  0  0  0  0  0  0  0
   -0.3729    0.0159    4.5556 C   0  0  0  0  0  0  0  0  0  0  0  0
   -0.5383    0.1112    6.0087 N   0  0  0  0  0  0  0  0  0  0  0  0
   -1.6574    0.3829    6.4180 O   0  0  0  0  0  0  0  0  0  0  0  0
    0.4437   -0.0695    6.7070 O   0  0  0  0  0  0  0  0  0  0  0  0
   -1.4934   -0.0084    3.7062 C   0  0  0  0  0  0  0  0  0  0  0  0
   -1.2924   -0.0014    2.3328 C   0  0  0  0  0  0  0  0  0  0  0  0
    0.0000    0.0000    1.7530 C   0  0  0  0  0  0  0  0  0  0  0  0
    0.0000    0.0000    0.0000 S   0  0  0  0  0  0  0  0  0  0  0  0
   -2.9164   -0.0766    4.1867 C   0  0  0  0  0  0  0  0  0  0  0  0
   -3.7439    0.7513    4.0123 O   0  0  0  0  0  0  0  0  0  0  0  0
   -3.2986   -1.6960    4.8608 Cl  0  0  0  0  0  0  0  0  0  0  0  0
    1.7544    0.0327    4.7233 H   0  0  0  0  0  0  0  0  0  0  0  0
   -2.1623   -0.0116    1.6737 H   0  0  0  0  0  0  0  0  0  0  0  0
    2.2272    0.0127   -0.6319 Au  0  0  0  0  0  0  0  0  0  0  0  0
  1  2  3  0  0  0  0
  2  3  1  0  0  0  0
  3  4  2  0  0  0  0
  4  5  1  0  0  0  0
  4 16  1  0  0  0  0
  5  6  1  0  0  0  0
  6  7  2  0  0  0  0
  6  8  2  0  0  0  0
  9 13  1  0  0  0  0
  9  5  2  0  0  0  0
 10  9  1  0  0  0  0
 11 10  2  0  0  0  0
 11  3  1  0  0  0  0
 12 11  1  0  0  0  0
 13 15  1  0  0  0  0
 14 13  2  0  0  0  0
 17 10  1  0  0  0  0
 18 12  1  0  0  0  0
M  END
