317683577.xyz
 OpenBabel07262113503D
COc1c(ccc(c1C(F)(F)F)S)C(=O)Cl
 22 22  0  0  0  0  0  0  0  0999 V2000
   -2.7602   -1.6165    4.9295 C   0  0  0  0  0  0  0  0  0  0  0  0
   -2.1624   -0.3308    4.7653 O   0  0  0  0  0  0  0  0  0  0  0  0
   -1.0721   -0.2467    3.9749 C   0  0  0  0  0  0  0  0  0  0  0  0
    0.2076   -0.2269    4.5898 C   0  0  0  0  0  0  0  0  0  0  0  0
    1.3552   -0.0804    3.8025 C   0  0  0  0  0  0  0  0  0  0  0  0
    1.2537    0.0000    2.4223 C   0  0  0  0  0  0  0  0  0  0  0  0
    0.0000    0.0000    1.7926 C   0  0  0  0  0  0  0  0  0  0  0  0
   -1.1809   -0.0948    2.5723 C   0  0  0  0  0  0  0  0  0  0  0  0
   -2.5353   -0.0134    1.8730 C   0  0  0  0  0  0  0  0  0  0  0  0
   -2.6264    1.1042    1.1302 F   0  0  0  0  0  0  0  0  0  0  0  0
   -3.5821    0.0128    2.7061 F   0  0  0  0  0  0  0  0  0  0  0  0
   -2.7194   -1.0668    1.0583 F   0  0  0  0  0  0  0  0  0  0  0  0
    0.0000    0.0000    0.0000 S   0  0  0  0  0  0  0  0  0  0  0  0
    0.3073   -0.3902    6.0651 C   0  0  0  0  0  0  0  0  0  0  0  0
   -0.4197   -0.9991    6.7792 O   0  0  0  0  0  0  0  0  0  0  0  0
    1.7376    0.4758    6.7845 Cl  0  0  0  0  0  0  0  0  0  0  0  0
   -3.0095   -2.0667    3.9556 H   0  0  0  0  0  0  0  0  0  0  0  0
   -3.6838   -1.4567    5.4995 H   0  0  0  0  0  0  0  0  0  0  0  0
   -2.0897   -2.2790    5.4968 H   0  0  0  0  0  0  0  0  0  0  0  0
    2.3314   -0.0506    4.2858 H   0  0  0  0  0  0  0  0  0  0  0  0
    2.1484    0.0733    1.8038 H   0  0  0  0  0  0  0  0  0  0  0  0
    0.0467    2.2565   -0.4616 Au  0  0  0  0  0  0  0  0  0  0  0  0
  1 19  1  0  0  0  0
  1 18  1  0  0  0  0
  2  1  1  0  0  0  0
  3  4  1  0  0  0  0
  3  2  1  0  0  0  0
  4 14  1  0  0  0  0
  5 20  1  0  0  0  0
  5  4  2  0  0  0  0
  6  5  1  0  0  0  0
  7  6  2  0  0  0  0
  7  8  1  0  0  0  0
  8  3  2  0  0  0  0
  9  8  1  0  0  0  0
  9 11  1  0  0  0  0
 10  9  1  0  0  0  0
 12  9  1  0  0  0  0
 13  7  1  0  0  0  0
 14 15  2  0  0  0  0
 14 16  1  0  0  0  0
 17  1  1  0  0  0  0
 21  6  1  0  0  0  0
 22 13  1  0  0  0  0
M  END
