317606586.xyz
 OpenBabel07262113493D
CCOc1c(ccc(c1C#N)S)[N+](=O)[O-]
 23 23  0  0  0  0  0  0  0  0999 V2000
   -3.6908    0.8016    6.3049 C   0  0  0  0  0  0  0  0  0  0  0  0
   -2.6594    1.1577    5.2614 C   0  0  0  0  0  0  0  0  0  0  0  0
   -2.0401   -0.0741    4.8249 O   0  0  0  0  0  0  0  0  0  0  0  0
   -0.9426    0.0074    4.0568 C   0  0  0  0  0  0  0  0  0  0  0  0
    0.3614    0.0147    4.5734 C   0  0  0  0  0  0  0  0  0  0  0  0
    1.4643   -0.0091    3.7081 C   0  0  0  0  0  0  0  0  0  0  0  0
    1.2912    0.0000    2.3378 C   0  0  0  0  0  0  0  0  0  0  0  0
   -0.0000    0.0000    1.7567 C   0  0  0  0  0  0  0  0  0  0  0  0
   -1.1140   -0.0036    2.6455 C   0  0  0  0  0  0  0  0  0  0  0  0
   -2.4666   -0.0347    2.1897 C   0  0  0  0  0  0  0  0  0  0  0  0
   -3.5666   -0.0457    1.8047 N   0  0  0  0  0  0  0  0  0  0  0  0
    0.0000    0.0000    0.0000 S   0  0  0  0  0  0  0  0  0  0  0  0
    0.6271   -0.0024    6.0140 N   0  0  0  0  0  0  0  0  0  0  0  0
    1.7079   -0.4479    6.3702 O   0  0  0  0  0  0  0  0  0  0  0  0
   -0.2252    0.4381    6.7700 O   0  0  0  0  0  0  0  0  0  0  0  0
   -4.2051    1.7113    6.6507 H   0  0  0  0  0  0  0  0  0  0  0  0
   -4.4408    0.1119    5.8891 H   0  0  0  0  0  0  0  0  0  0  0  0
   -3.2044    0.3205    7.1658 H   0  0  0  0  0  0  0  0  0  0  0  0
   -1.8811    1.8140    5.6766 H   0  0  0  0  0  0  0  0  0  0  0  0
   -3.1182    1.6461    4.3843 H   0  0  0  0  0  0  0  0  0  0  0  0
    2.4609   -0.0347    4.1482 H   0  0  0  0  0  0  0  0  0  0  0  0
    2.1639   -0.0032    1.6830 H   0  0  0  0  0  0  0  0  0  0  0  0
   -2.2290   -0.0412   -0.6258 Au  0  0  0  0  0  0  0  0  0  0  0  0
  1 16  1  0  0  0  0
  1 18  1  0  0  0  0
  2 19  1  0  0  0  0
  2  1  1  0  0  0  0
  3  2  1  0  0  0  0
  4  5  1  0  0  0  0
  4  3  1  0  0  0  0
  5 13  1  0  0  0  0
  6 21  1  0  0  0  0
  6  5  2  0  0  0  0
  7  6  1  0  0  0  0
  8  7  2  0  0  0  0
  8  9  1  0  0  0  0
  9  4  2  0  0  0  0
 10  9  1  0  0  0  0
 11 10  3  0  0  0  0
 12  8  1  0  0  0  0
 13 14  2  0  0  0  0
 13 15  2  0  0  0  0
 17  1  1  0  0  0  0
 20  2  1  0  0  0  0
 22  7  1  0  0  0  0
 23 12  1  0  0  0  0
M  END
