317664635.xyz
 OpenBabel07262113503D
N#CCc1cc(OC)cc(c1S)OC
 25 25  0  0  0  0  0  0  0  0999 V2000
   -3.1763    2.3805    0.7357 N   0  0  0  0  0  0  0  0  0  0  0  0
   -2.8975    1.3482    1.1809 C   0  0  0  0  0  0  0  0  0  0  0  0
   -2.5454    0.0503    1.7651 C   0  0  0  0  0  0  0  0  0  0  0  0
   -1.2120    0.0739    2.4904 C   0  0  0  0  0  0  0  0  0  0  0  0
   -1.2011    0.1875    3.8764 C   0  0  0  0  0  0  0  0  0  0  0  0
    0.0147    0.2065    4.5772 C   0  0  0  0  0  0  0  0  0  0  0  0
   -0.0766    0.3188    5.9199 O   0  0  0  0  0  0  0  0  0  0  0  0
    1.1010    0.3585    6.6953 C   0  0  0  0  0  0  0  0  0  0  0  0
    1.2295    0.1051    3.8850 C   0  0  0  0  0  0  0  0  0  0  0  0
    1.2215    0.0000    2.4870 C   0  0  0  0  0  0  0  0  0  0  0  0
    0.0000    0.0000    1.7635 C   0  0  0  0  0  0  0  0  0  0  0  0
    0.0000    0.0000    0.0000 S   0  0  0  0  0  0  0  0  0  0  0  0
    2.3459   -0.1384    1.7606 O   0  0  0  0  0  0  0  0  0  0  0  0
    3.6041   -0.1161    2.3967 C   0  0  0  0  0  0  0  0  0  0  0  0
   -2.5165   -0.6894    0.9498 H   0  0  0  0  0  0  0  0  0  0  0  0
   -3.3450   -0.2390    2.4642 H   0  0  0  0  0  0  0  0  0  0  0  0
   -2.1279    0.2664    4.4461 H   0  0  0  0  0  0  0  0  0  0  0  0
    1.7373    1.2201    6.4264 H   0  0  0  0  0  0  0  0  0  0  0  0
    1.6910   -0.5693    6.5894 H   0  0  0  0  0  0  0  0  0  0  0  0
    0.7831    0.4617    7.7407 H   0  0  0  0  0  0  0  0  0  0  0  0
    2.1717    0.1059    4.4250 H   0  0  0  0  0  0  0  0  0  0  0  0
    0.6671   -2.1486   -0.5353 Au  0  0  0  0  0  0  0  0  0  0  0  0
    3.7155   -0.9507    3.1111 H   0  0  0  0  0  0  0  0  0  0  0  0
    3.7739    0.8371    2.9272 H   0  0  0  0  0  0  0  0  0  0  0  0
    4.3530   -0.2230    1.6017 H   0  0  0  0  0  0  0  0  0  0  0  0
  1  2  3  0  0  0  0
  2  3  1  0  0  0  0
  3 16  1  0  0  0  0
  3  4  1  0  0  0  0
  4  5  2  0  0  0  0
  5 17  1  0  0  0  0
  5  6  1  0  0  0  0
  6  7  1  0  0  0  0
  7  8  1  0  0  0  0
  8 20  1  0  0  0  0
  9 21  1  0  0  0  0
  9  6  2  0  0  0  0
 10  9  1  0  0  0  0
 11 10  2  0  0  0  0
 11  4  1  0  0  0  0
 12 11  1  0  0  0  0
 13 14  1  0  0  0  0
 13 10  1  0  0  0  0
 14 24  1  0  0  0  0
 14 23  1  0  0  0  0
 15  3  1  0  0  0  0
 18  8  1  0  0  0  0
 19  8  1  0  0  0  0
 22 12  1  0  0  0  0
 25 14  1  0  0  0  0
M  END
