317672285.xyz
 OpenBabel07262113503D
COc1c(S)cc(cc1C(F)F)C(=O)Cl
 22 22  0  0  0  0  0  0  0  0999 V2000
    2.8622   -1.3281    1.3906 C   0  0  0  0  0  0  0  0  0  0  0  0
    2.4263   -0.0564    1.8780 O   0  0  0  0  0  0  0  0  0  0  0  0
    1.2231    0.0000    2.4950 C   0  0  0  0  0  0  0  0  0  0  0  0
    0.0000    0.0000    1.7822 C   0  0  0  0  0  0  0  0  0  0  0  0
    0.0000    0.0000    0.0000 S   0  0  0  0  0  0  0  0  0  0  0  0
   -1.1966    0.1249    2.4974 C   0  0  0  0  0  0  0  0  0  0  0  0
   -1.2005    0.2391    3.8947 C   0  0  0  0  0  0  0  0  0  0  0  0
    0.0172    0.2517    4.5917 C   0  0  0  0  0  0  0  0  0  0  0  0
    1.2160    0.1340    3.8968 C   0  0  0  0  0  0  0  0  0  0  0  0
    2.5407    0.1224    4.6182 C   0  0  0  0  0  0  0  0  0  0  0  0
    2.3766    0.4331    5.9293 F   0  0  0  0  0  0  0  0  0  0  0  0
    3.0944   -1.1279    4.5617 F   0  0  0  0  0  0  0  0  0  0  0  0
   -2.5292    0.3528    4.5491 C   0  0  0  0  0  0  0  0  0  0  0  0
   -3.5805    0.3355    3.9915 O   0  0  0  0  0  0  0  0  0  0  0  0
   -2.4742    0.5284    6.3499 Cl  0  0  0  0  0  0  0  0  0  0  0  0
    3.8421   -1.1588    0.9267 H   0  0  0  0  0  0  0  0  0  0  0  0
    2.9670   -2.0366    2.2270 H   0  0  0  0  0  0  0  0  0  0  0  0
    2.1666   -1.7235    0.6357 H   0  0  0  0  0  0  0  0  0  0  0  0
   -0.7978   -2.1008   -0.5080 Au  0  0  0  0  0  0  0  0  0  0  0  0
   -2.1455    0.1385    1.9602 H   0  0  0  0  0  0  0  0  0  0  0  0
    0.0309    0.3548    5.6751 H   0  0  0  0  0  0  0  0  0  0  0  0
    3.2649    0.8245    4.1754 H   0  0  0  0  0  0  0  0  0  0  0  0
  1  2  1  0  0  0  0
  1 17  1  0  0  0  0
  2  3  1  0  0  0  0
  3  9  1  0  0  0  0
  4  3  2  0  0  0  0
  4  6  1  0  0  0  0
  5  4  1  0  0  0  0
  6  7  2  0  0  0  0
  7 13  1  0  0  0  0
  7  8  1  0  0  0  0
  8 21  1  0  0  0  0
  9  8  2  0  0  0  0
  9 10  1  0  0  0  0
 10 11  1  0  0  0  0
 12 10  1  0  0  0  0
 13 15  1  0  0  0  0
 14 13  2  0  0  0  0
 16  1  1  0  0  0  0
 18  1  1  0  0  0  0
 19  5  1  0  0  0  0
 20  6  1  0  0  0  0
 22 10  1  0  0  0  0
M  END
