317690234.xyz
 OpenBabel07262113503D
ClC(=O)c1ccc(c(c1S)C)C(F)(F)F
 21 21  0  0  0  0  0  0  0  0999 V2000
    3.8210    0.8962    2.2400 Cl  0  0  0  0  0  0  0  0  0  0  0  0
    2.5191   -0.2821    1.7907 C   0  0  0  0  0  0  0  0  0  0  0  0
    2.7531   -1.1776    1.0505 O   0  0  0  0  0  0  0  0  0  0  0  0
    1.2270   -0.0000    2.4893 C   0  0  0  0  0  0  0  0  0  0  0  0
    1.2457    0.1723    3.8755 C   0  0  0  0  0  0  0  0  0  0  0  0
    0.0492    0.2858    4.5738 C   0  0  0  0  0  0  0  0  0  0  0  0
   -1.1722    0.2519    3.8948 C   0  0  0  0  0  0  0  0  0  0  0  0
   -1.2257    0.1256    2.4907 C   0  0  0  0  0  0  0  0  0  0  0  0
   -0.0000   -0.0000    1.7855 C   0  0  0  0  0  0  0  0  0  0  0  0
    0.0000    0.0000    0.0000 S   0  0  0  0  0  0  0  0  0  0  0  0
   -2.5260    0.0871    1.7327 C   0  0  0  0  0  0  0  0  0  0  0  0
   -2.4425    0.3622    4.7134 C   0  0  0  0  0  0  0  0  0  0  0  0
   -3.1569    1.4569    4.3890 F   0  0  0  0  0  0  0  0  0  0  0  0
   -2.1864    0.4397    6.0292 F   0  0  0  0  0  0  0  0  0  0  0  0
   -3.2456   -0.7032    4.5321 F   0  0  0  0  0  0  0  0  0  0  0  0
    2.1990    0.2037    4.4036 H   0  0  0  0  0  0  0  0  0  0  0  0
    0.0605    0.3997    5.6571 H   0  0  0  0  0  0  0  0  0  0  0  0
   -0.1640   -2.2539   -0.4549 Au  0  0  0  0  0  0  0  0  0  0  0  0
   -2.6653   -0.9129    1.2880 H   0  0  0  0  0  0  0  0  0  0  0  0
   -2.4966    0.7907    0.8900 H   0  0  0  0  0  0  0  0  0  0  0  0
   -3.3949    0.3131    2.3553 H   0  0  0  0  0  0  0  0  0  0  0  0
  2  1  1  0  0  0  0
  2  4  1  0  0  0  0
  3  2  2  0  0  0  0
  4  5  1  0  0  0  0
  5 16  1  0  0  0  0
  5  6  2  0  0  0  0
  6 17  1  0  0  0  0
  7  6  1  0  0  0  0
  7 12  1  0  0  0  0
  8  7  2  0  0  0  0
  9  4  2  0  0  0  0
  9  8  1  0  0  0  0
 10  9  1  0  0  0  0
 11 21  1  0  0  0  0
 11  8  1  0  0  0  0
 12 14  1  0  0  0  0
 13 12  1  0  0  0  0
 15 12  1  0  0  0  0
 18 10  1  0  0  0  0
 19 11  1  0  0  0  0
 20 11  1  0  0  0  0
M  END
