317640440.xyz
 OpenBabel07262113493D
FC(Oc1c(S)cc(cc1C(=O)N)F)F
 21 21  0  0  0  0  0  0  0  0999 V2000
   -3.0500    2.0314    2.5236 F   0  0  0  0  0  0  0  0  0  0  0  0
   -3.4396    0.8324    2.0347 C   0  0  0  0  0  0  0  0  0  0  0  0
   -2.3539   -0.0027    1.8855 O   0  0  0  0  0  0  0  0  0  0  0  0
   -1.1714    0.1137    2.5606 C   0  0  0  0  0  0  0  0  0  0  0  0
    0.0000    0.0000    1.7739 C   0  0  0  0  0  0  0  0  0  0  0  0
    0.0000    0.0000    0.0000 S   0  0  0  0  0  0  0  0  0  0  0  0
    1.2541   -0.0000    2.4041 C   0  0  0  0  0  0  0  0  0  0  0  0
    1.3314    0.1665    3.7804 C   0  0  0  0  0  0  0  0  0  0  0  0
    0.1910    0.3003    4.5602 C   0  0  0  0  0  0  0  0  0  0  0  0
   -1.0771    0.2596    3.9570 C   0  0  0  0  0  0  0  0  0  0  0  0
   -2.3027    0.3170    4.8303 C   0  0  0  0  0  0  0  0  0  0  0  0
   -3.3123   -0.3267    4.5932 O   0  0  0  0  0  0  0  0  0  0  0  0
   -2.1876    1.1099    5.9343 N   0  0  0  0  0  0  0  0  0  0  0  0
    2.5329    0.1763    4.3734 F   0  0  0  0  0  0  0  0  0  0  0  0
   -3.9489    1.0240    0.8055 F   0  0  0  0  0  0  0  0  0  0  0  0
   -4.2019    0.3989    2.6957 H   0  0  0  0  0  0  0  0  0  0  0  0
   -1.6359   -1.5155   -0.5877 Au  0  0  0  0  0  0  0  0  0  0  0  0
    2.1656   -0.1206    1.8176 H   0  0  0  0  0  0  0  0  0  0  0  0
    0.2941    0.3837    5.6422 H   0  0  0  0  0  0  0  0  0  0  0  0
   -1.4653    1.8143    6.0048 H   0  0  0  0  0  0  0  0  0  0  0  0
   -3.0085    1.2010    6.5220 H   0  0  0  0  0  0  0  0  0  0  0  0
  2  1  1  0  0  0  0
  2 16  1  0  0  0  0
  3  2  1  0  0  0  0
  3  4  1  0  0  0  0
  4 10  2  0  0  0  0
  5  7  2  0  0  0  0
  5  4  1  0  0  0  0
  6  5  1  0  0  0  0
  7  8  1  0  0  0  0
  8 14  1  0  0  0  0
  8  9  2  0  0  0  0
  9 19  1  0  0  0  0
 10  9  1  0  0  0  0
 10 11  1  0  0  0  0
 11 13  1  0  0  0  0
 12 11  2  0  0  0  0
 13 20  1  0  0  0  0
 13 21  1  0  0  0  0
 15  2  1  0  0  0  0
 17  6  1  0  0  0  0
 18  7  1  0  0  0  0
M  END
