317675180.xyz
 OpenBabel07262113503D
Sc1cccc(c1)OCc1ccccc1F
 27 28  0  0  0  0  0  0  0  0999 V2000
    0.0000    0.0000    0.0000 S   0  0  0  0  0  0  0  0  0  0  0  0
    0.0000   -0.0000    1.7838 C   0  0  0  0  0  0  0  0  0  0  0  0
    1.2173    0.0000    2.4774 C   0  0  0  0  0  0  0  0  0  0  0  0
    1.2102    0.0865    3.8737 C   0  0  0  0  0  0  0  0  0  0  0  0
    0.0112    0.1641    4.5755 C   0  0  0  0  0  0  0  0  0  0  0  0
   -1.2115    0.1632    3.8799 C   0  0  0  0  0  0  0  0  0  0  0  0
   -1.2183    0.0872    2.4830 C   0  0  0  0  0  0  0  0  0  0  0  0
   -2.3306    0.2428    4.6428 O   0  0  0  0  0  0  0  0  0  0  0  0
   -3.5915    0.2390    4.0122 C   0  0  0  0  0  0  0  0  0  0  0  0
   -4.6744    0.3240    5.0551 C   0  0  0  0  0  0  0  0  0  0  0  0
   -4.4172    0.4081    6.4273 C   0  0  0  0  0  0  0  0  0  0  0  0
   -5.4680    0.4859    7.3468 C   0  0  0  0  0  0  0  0  0  0  0  0
   -6.7925    0.4804    6.9031 C   0  0  0  0  0  0  0  0  0  0  0  0
   -7.0716    0.3968    5.5357 C   0  0  0  0  0  0  0  0  0  0  0  0
   -6.0101    0.3206    4.6429 C   0  0  0  0  0  0  0  0  0  0  0  0
   -6.2625    0.2392    3.3212 F   0  0  0  0  0  0  0  0  0  0  0  0
   -0.3739   -2.2133   -0.5162 Au  0  0  0  0  0  0  0  0  0  0  0  0
    2.1531   -0.0691    1.9216 H   0  0  0  0  0  0  0  0  0  0  0  0
    2.1554    0.0890    4.4218 H   0  0  0  0  0  0  0  0  0  0  0  0
   -0.0105    0.2266    5.6648 H   0  0  0  0  0  0  0  0  0  0  0  0
   -2.1453    0.0921    1.9130 H   0  0  0  0  0  0  0  0  0  0  0  0
   -3.6774    1.0903    3.3104 H   0  0  0  0  0  0  0  0  0  0  0  0
   -3.7212   -0.6794    3.4086 H   0  0  0  0  0  0  0  0  0  0  0  0
   -3.3799    0.4115    6.7615 H   0  0  0  0  0  0  0  0  0  0  0  0
   -5.2490    0.5512    8.4146 H   0  0  0  0  0  0  0  0  0  0  0  0
   -7.6149    0.5412    7.6193 H   0  0  0  0  0  0  0  0  0  0  0  0
   -8.0928    0.3898    5.1509 H   0  0  0  0  0  0  0  0  0  0  0  0
  1  2  1  0  0  0  0
  2  3  2  0  0  0  0
  2  7  1  0  0  0  0
  3  4  1  0  0  0  0
  4 19  1  0  0  0  0
  4  5  2  0  0  0  0
  5 20  1  0  0  0  0
  6  5  1  0  0  0  0
  6  8  1  0  0  0  0
  7  6  2  0  0  0  0
  9  8  1  0  0  0  0
  9 10  1  0  0  0  0
 10 11  1  0  0  0  0
 11 24  1  0  0  0  0
 11 12  2  0  0  0  0
 12 25  1  0  0  0  0
 13 12  1  0  0  0  0
 13 26  1  0  0  0  0
 14 13  2  0  0  0  0
 15 10  2  0  0  0  0
 15 14  1  0  0  0  0
 16 15  1  0  0  0  0
 17  1  1  0  0  0  0
 18  3  1  0  0  0  0
 21  7  1  0  0  0  0
 22  9  1  0  0  0  0
 23  9  1  0  0  0  0
 27 14  1  0  0  0  0
M  END
