317679998.xyz
 OpenBabel07262113503D
COc1c(cc(cc1C(=O)Cl)S)OC(F)(F)F
 23 23  0  0  0  0  0  0  0  0999 V2000
   -0.2775    1.3346    6.6412 C   0  0  0  0  0  0  0  0  0  0  0  0
   -0.0026    0.1118    5.9549 O   0  0  0  0  0  0  0  0  0  0  0  0
    0.0184    0.1435    4.6106 C   0  0  0  0  0  0  0  0  0  0  0  0
   -1.1863    0.1364    3.8821 C   0  0  0  0  0  0  0  0  0  0  0  0
   -1.2080    0.0784    2.4953 C   0  0  0  0  0  0  0  0  0  0  0  0
    0.0000    0.0000    1.7823 C   0  0  0  0  0  0  0  0  0  0  0  0
    1.2091    0.0000    2.4872 C   0  0  0  0  0  0  0  0  0  0  0  0
    1.2326    0.0936    3.8858 C   0  0  0  0  0  0  0  0  0  0  0  0
    2.5123    0.1887    4.6399 C   0  0  0  0  0  0  0  0  0  0  0  0
    2.6851    0.7396    5.6777 O   0  0  0  0  0  0  0  0  0  0  0  0
    3.9008   -0.6444    3.8224 Cl  0  0  0  0  0  0  0  0  0  0  0  0
    0.0000    0.0000    0.0000 S   0  0  0  0  0  0  0  0  0  0  0  0
   -2.3725    0.2254    4.6007 O   0  0  0  0  0  0  0  0  0  0  0  0
   -3.0623   -0.9226    4.8253 C   0  0  0  0  0  0  0  0  0  0  0  0
   -2.3011   -1.8721    5.3735 F   0  0  0  0  0  0  0  0  0  0  0  0
   -4.0623   -0.6368    5.6439 F   0  0  0  0  0  0  0  0  0  0  0  0
   -3.5686   -1.4272    3.6882 F   0  0  0  0  0  0  0  0  0  0  0  0
   -1.2512    1.7492    6.3363 H   0  0  0  0  0  0  0  0  0  0  0  0
    0.5277    2.0619    6.4554 H   0  0  0  0  0  0  0  0  0  0  0  0
   -0.3030    1.0873    7.7098 H   0  0  0  0  0  0  0  0  0  0  0  0
   -2.1634    0.0790    1.9709 H   0  0  0  0  0  0  0  0  0  0  0  0
    2.1484   -0.0629    1.9398 H   0  0  0  0  0  0  0  0  0  0  0  0
   -0.2256   -2.2390   -0.4937 Au  0  0  0  0  0  0  0  0  0  0  0  0
  1 20  1  0  0  0  0
  2  1  1  0  0  0  0
  3  2  1  0  0  0  0
  4 13  1  0  0  0  0
  4  3  1  0  0  0  0
  5  4  2  0  0  0  0
  6  7  2  0  0  0  0
  6  5  1  0  0  0  0
  7  8  1  0  0  0  0
  8  3  2  0  0  0  0
  8  9  1  0  0  0  0
  9 10  2  0  0  0  0
 11  9  1  0  0  0  0
 12  6  1  0  0  0  0
 13 14  1  0  0  0  0
 14 15  1  0  0  0  0
 14 16  1  0  0  0  0
 17 14  1  0  0  0  0
 18  1  1  0  0  0  0
 19  1  1  0  0  0  0
 21  5  1  0  0  0  0
 22  7  1  0  0  0  0
 23 12  1  0  0  0  0
M  END
