317680723.xyz
 OpenBabel07262113503D
FC(c1cc(cc(c1C(=O)Cl)S)[N+](=O)[O-])F
 20 20  0  0  0  0  0  0  0  0999 V2000
   -3.3120   -0.7544    4.3425 F   0  0  0  0  0  0  0  0  0  0  0  0
   -2.2610   -0.1024    4.9048 C   0  0  0  0  0  0  0  0  0  0  0  0
   -1.0569   -0.1161    3.9896 C   0  0  0  0  0  0  0  0  0  0  0  0
    0.1994   -0.1379    4.5940 C   0  0  0  0  0  0  0  0  0  0  0  0
    1.3338   -0.0847    3.7909 C   0  0  0  0  0  0  0  0  0  0  0  0
    1.2573    0.0000    2.4083 C   0  0  0  0  0  0  0  0  0  0  0  0
   -0.0000    0.0000    1.7806 C   0  0  0  0  0  0  0  0  0  0  0  0
   -1.1627   -0.0670    2.5866 C   0  0  0  0  0  0  0  0  0  0  0  0
   -2.5011   -0.1243    1.9130 C   0  0  0  0  0  0  0  0  0  0  0  0
   -2.9915   -1.0347    1.3507 O   0  0  0  0  0  0  0  0  0  0  0  0
   -3.3495    1.5048    1.9898 Cl  0  0  0  0  0  0  0  0  0  0  0  0
    0.0000    0.0000    0.0000 S   0  0  0  0  0  0  0  0  0  0  0  0
    2.6667   -0.1011    4.4368 N   0  0  0  0  0  0  0  0  0  0  0  0
    3.6417   -0.0362    3.7104 O   0  0  0  0  0  0  0  0  0  0  0  0
    2.6939   -0.1794    5.6532 O   0  0  0  0  0  0  0  0  0  0  0  0
   -2.6521    1.1741    5.1504 F   0  0  0  0  0  0  0  0  0  0  0  0
   -2.0338   -0.5839    5.8707 H   0  0  0  0  0  0  0  0  0  0  0  0
    0.3138   -0.1934    5.6763 H   0  0  0  0  0  0  0  0  0  0  0  0
    2.1706    0.0669    1.8191 H   0  0  0  0  0  0  0  0  0  0  0  0
   -1.3896    1.7865   -0.4868 Au  0  0  0  0  0  0  0  0  0  0  0  0
  1  2  1  0  0  0  0
  2 16  1  0  0  0  0
  2 17  1  0  0  0  0
  3  4  1  0  0  0  0
  3  2  1  0  0  0  0
  4 18  1  0  0  0  0
  5 13  1  0  0  0  0
  5  4  2  0  0  0  0
  6  5  1  0  0  0  0
  7  6  2  0  0  0  0
  7  8  1  0  0  0  0
  8  3  2  0  0  0  0
  9 11  1  0  0  0  0
  9  8  1  0  0  0  0
 10  9  2  0  0  0  0
 12  7  1  0  0  0  0
 13 15  2  0  0  0  0
 14 13  2  0  0  0  0
 19  6  1  0  0  0  0
 20 12  1  0  0  0  0
M  END
