317612447.xyz
 OpenBabel07262113493D
N#Cc1c(ccc(c1OC(F)(F)F)S)OC(F)F
 22 22  0  0  0  0  0  0  0  0999 V2000
   -3.2520   -0.0112    5.4064 N   0  0  0  0  0  0  0  0  0  0  0  0
   -2.2931    0.0544    4.7577 C   0  0  0  0  0  0  0  0  0  0  0  0
   -1.1027    0.1021    3.9651 C   0  0  0  0  0  0  0  0  0  0  0  0
    0.1607    0.1233    4.5971 C   0  0  0  0  0  0  0  0  0  0  0  0
    1.3273    0.0927    3.8296 C   0  0  0  0  0  0  0  0  0  0  0  0
    1.2360    0.0000    2.4421 C   0  0  0  0  0  0  0  0  0  0  0  0
    0.0000    0.0000    1.7742 C   0  0  0  0  0  0  0  0  0  0  0  0
   -1.1643    0.0806    2.5604 C   0  0  0  0  0  0  0  0  0  0  0  0
   -2.4018    0.0025    1.9588 O   0  0  0  0  0  0  0  0  0  0  0  0
   -3.0713    1.1449    1.6145 C   0  0  0  0  0  0  0  0  0  0  0  0
   -3.9843    0.8078    0.7152 F   0  0  0  0  0  0  0  0  0  0  0  0
   -2.2611    2.0693    1.1009 F   0  0  0  0  0  0  0  0  0  0  0  0
   -3.6841    1.6883    2.6675 F   0  0  0  0  0  0  0  0  0  0  0  0
    0.0000    0.0000    0.0000 S   0  0  0  0  0  0  0  0  0  0  0  0
    0.1434    0.1815    5.9591 O   0  0  0  0  0  0  0  0  0  0  0  0
    1.2080   -0.3177    6.6751 C   0  0  0  0  0  0  0  0  0  0  0  0
    0.8022   -0.4399    7.9355 F   0  0  0  0  0  0  0  0  0  0  0  0
    2.2452    0.5527    6.6483 F   0  0  0  0  0  0  0  0  0  0  0  0
    2.3037    0.1452    4.3092 H   0  0  0  0  0  0  0  0  0  0  0  0
    2.1475   -0.0635    1.8454 H   0  0  0  0  0  0  0  0  0  0  0  0
   -1.4598   -1.7048   -0.5366 Au  0  0  0  0  0  0  0  0  0  0  0  0
    1.5546   -1.2903    6.2807 H   0  0  0  0  0  0  0  0  0  0  0  0
  2  1  3  0  0  0  0
  3  4  1  0  0  0  0
  3  2  1  0  0  0  0
  4 15  1  0  0  0  0
  5 19  1  0  0  0  0
  5  4  2  0  0  0  0
  6  5  1  0  0  0  0
  7  6  2  0  0  0  0
  7  8  1  0  0  0  0
  8  3  2  0  0  0  0
  9  8  1  0  0  0  0
 10  9  1  0  0  0  0
 10 13  1  0  0  0  0
 11 10  1  0  0  0  0
 12 10  1  0  0  0  0
 14  7  1  0  0  0  0
 15 16  1  0  0  0  0
 16 17  1  0  0  0  0
 18 16  1  0  0  0  0
 20  6  1  0  0  0  0
 21 14  1  0  0  0  0
 22 16  1  0  0  0  0
M  END
