317659487.xyz
 OpenBabel07262113503D
FC(c1cc(C)c(c(c1)I)S)F
 19 19  0  0  0  0  0  0  0  0999 V2000
    0.4451    0.4136    6.7602 F   0  0  0  0  0  0  0  0  0  0  0  0
   -0.6404   -0.0589    6.0878 C   0  0  0  0  0  0  0  0  0  0  0  0
   -0.4136   -0.0066    4.5995 C   0  0  0  0  0  0  0  0  0  0  0  0
   -1.4979   -0.0006    3.7181 C   0  0  0  0  0  0  0  0  0  0  0  0
   -1.3199    0.0029    2.3372 C   0  0  0  0  0  0  0  0  0  0  0  0
   -2.5312    0.0146    1.4415 C   0  0  0  0  0  0  0  0  0  0  0  0
   -0.0000    0.0000    1.7757 C   0  0  0  0  0  0  0  0  0  0  0  0
    1.0752   -0.0000    2.6942 C   0  0  0  0  0  0  0  0  0  0  0  0
    0.8761   -0.0037    4.0797 C   0  0  0  0  0  0  0  0  0  0  0  0
    3.1752    0.0163    2.1995 I   0  0  0  0  0  0  0  0  0  0  0  0
    0.0000    0.0000    0.0000 S   0  0  0  0  0  0  0  0  0  0  0  0
   -1.7161    0.7026    6.4327 F   0  0  0  0  0  0  0  0  0  0  0  0
   -0.8349   -1.0838    6.4551 H   0  0  0  0  0  0  0  0  0  0  0  0
   -2.5138    0.0140    4.1177 H   0  0  0  0  0  0  0  0  0  0  0  0
   -2.5461   -0.8655    0.7778 H   0  0  0  0  0  0  0  0  0  0  0  0
   -3.4546    0.0190    2.0375 H   0  0  0  0  0  0  0  0  0  0  0  0
   -2.5342    0.9001    0.7849 H   0  0  0  0  0  0  0  0  0  0  0  0
    1.7248    0.0057    4.7623 H   0  0  0  0  0  0  0  0  0  0  0  0
    2.2457   -0.0334   -0.5871 Au  0  0  0  0  0  0  0  0  0  0  0  0
  2 12  1  0  0  0  0
  2 13  1  0  0  0  0
  2  1  1  0  0  0  0
  3  2  1  0  0  0  0
  4 14  1  0  0  0  0
  4  3  2  0  0  0  0
  5  4  1  0  0  0  0
  6 16  1  0  0  0  0
  6  5  1  0  0  0  0
  7  5  2  0  0  0  0
  7  8  1  0  0  0  0
  8  9  2  0  0  0  0
  9  3  1  0  0  0  0
  9 18  1  0  0  0  0
 10  8  1  0  0  0  0
 11  7  1  0  0  0  0
 15  6  1  0  0  0  0
 17  6  1  0  0  0  0
 19 11  1  0  0  0  0
M  END
