317630642.xyz
 OpenBabel07262113493D
ClCC(=O)c1ccc(c(c1S)C#N)CC
 25 25  0  0  0  0  0  0  0  0999 V2000
    1.9574    2.9191    1.5042 Cl  0  0  0  0  0  0  0  0  0  0  0  0
    2.7962    1.4175    0.9571 C   0  0  0  0  0  0  0  0  0  0  0  0
    2.5744    0.2559    1.9231 C   0  0  0  0  0  0  0  0  0  0  0  0
    3.5297   -0.3932    2.2880 O   0  0  0  0  0  0  0  0  0  0  0  0
    1.2089    0.0000    2.5039 C   0  0  0  0  0  0  0  0  0  0  0  0
    1.1790   -0.2504    3.8846 C   0  0  0  0  0  0  0  0  0  0  0  0
   -0.0232   -0.4119    4.5639 C   0  0  0  0  0  0  0  0  0  0  0  0
   -1.2481   -0.3509    3.8879 C   0  0  0  0  0  0  0  0  0  0  0  0
   -1.2198   -0.1598    2.4891 C   0  0  0  0  0  0  0  0  0  0  0  0
   -0.0000    0.0000    1.7804 C   0  0  0  0  0  0  0  0  0  0  0  0
    0.0000    0.0000    0.0000 S   0  0  0  0  0  0  0  0  0  0  0  0
   -2.4619   -0.1020    1.7751 C   0  0  0  0  0  0  0  0  0  0  0  0
   -3.4907   -0.0199    1.2423 N   0  0  0  0  0  0  0  0  0  0  0  0
   -2.5526   -0.4507    4.6387 C   0  0  0  0  0  0  0  0  0  0  0  0
   -3.1682    0.9266    4.9286 C   0  0  0  0  0  0  0  0  0  0  0  0
    2.4103    1.1708   -0.0386 H   0  0  0  0  0  0  0  0  0  0  0  0
    3.8727    1.6208    0.9214 H   0  0  0  0  0  0  0  0  0  0  0  0
    2.1289   -0.2963    4.4204 H   0  0  0  0  0  0  0  0  0  0  0  0
   -0.0189   -0.5839    5.6427 H   0  0  0  0  0  0  0  0  0  0  0  0
   -0.9332    2.0666   -0.4608 Au  0  0  0  0  0  0  0  0  0  0  0  0
   -3.2696   -1.0536    4.0596 H   0  0  0  0  0  0  0  0  0  0  0  0
   -2.3756   -0.9844    5.5855 H   0  0  0  0  0  0  0  0  0  0  0  0
   -3.3947    1.4620    3.9942 H   0  0  0  0  0  0  0  0  0  0  0  0
   -4.1080    0.8194    5.4915 H   0  0  0  0  0  0  0  0  0  0  0  0
   -2.4810    1.5499    5.5218 H   0  0  0  0  0  0  0  0  0  0  0  0
  2  1  1  0  0  0  0
  2  3  1  0  0  0  0
  3  4  2  0  0  0  0
  3  5  1  0  0  0  0
  5  6  2  0  0  0  0
  6 18  1  0  0  0  0
  6  7  1  0  0  0  0
  7 19  1  0  0  0  0
  8  7  2  0  0  0  0
  8 14  1  0  0  0  0
  9  8  1  0  0  0  0
 10  9  2  0  0  0  0
 10  5  1  0  0  0  0
 11 10  1  0  0  0  0
 12  9  1  0  0  0  0
 13 12  3  0  0  0  0
 14 15  1  0  0  0  0
 14 22  1  0  0  0  0
 15 24  1  0  0  0  0
 15 25  1  0  0  0  0
 16  2  1  0  0  0  0
 17  2  1  0  0  0  0
 20 11  1  0  0  0  0
 21 14  1  0  0  0  0
 23 15  1  0  0  0  0
M  END
