317631182.xyz
 OpenBabel07262113493D
N#Cc1cc(C(=O)Cl)c(cc1C)S
 19 19  0  0  0  0  0  0  0  0999 V2000
    0.5710    0.4613    7.1456 N   0  0  0  0  0  0  0  0  0  0  0  0
    0.4405    0.3707    5.9955 C   0  0  0  0  0  0  0  0  0  0  0  0
    0.3052    0.2550    4.5729 C   0  0  0  0  0  0  0  0  0  0  0  0
   -0.9681    0.2787    3.9940 C   0  0  0  0  0  0  0  0  0  0  0  0
   -1.1461    0.1497    2.6115 C   0  0  0  0  0  0  0  0  0  0  0  0
   -2.5255    0.1363    2.0534 C   0  0  0  0  0  0  0  0  0  0  0  0
   -2.9099   -0.4388    1.0872 O   0  0  0  0  0  0  0  0  0  0  0  0
   -3.7053    1.1400    3.0037 Cl  0  0  0  0  0  0  0  0  0  0  0  0
    0.0000    0.0000    1.7811 C   0  0  0  0  0  0  0  0  0  0  0  0
    1.2700   -0.0000    2.3863 C   0  0  0  0  0  0  0  0  0  0  0  0
    1.4587    0.1227    3.7631 C   0  0  0  0  0  0  0  0  0  0  0  0
    2.8312    0.1093    4.3724 C   0  0  0  0  0  0  0  0  0  0  0  0
    0.0000    0.0000    0.0000 S   0  0  0  0  0  0  0  0  0  0  0  0
   -1.8409    0.4004    4.6337 H   0  0  0  0  0  0  0  0  0  0  0  0
    2.1404   -0.1073    1.7369 H   0  0  0  0  0  0  0  0  0  0  0  0
    2.9286   -0.7087    5.1041 H   0  0  0  0  0  0  0  0  0  0  0  0
    3.6079   -0.0119    3.6057 H   0  0  0  0  0  0  0  0  0  0  0  0
    3.0245    1.0442    4.9228 H   0  0  0  0  0  0  0  0  0  0  0  0
   -0.9327   -2.0439   -0.5334 Au  0  0  0  0  0  0  0  0  0  0  0  0
  2  1  3  0  0  0  0
  3  2  1  0  0  0  0
  4  3  1  0  0  0  0
  4 14  1  0  0  0  0
  5  4  2  0  0  0  0
  6  5  1  0  0  0  0
  6  8  1  0  0  0  0
  7  6  2  0  0  0  0
  9 10  2  0  0  0  0
  9  5  1  0  0  0  0
 10 11  1  0  0  0  0
 11 12  1  0  0  0  0
 11  3  2  0  0  0  0
 12 18  1  0  0  0  0
 12 16  1  0  0  0  0
 13  9  1  0  0  0  0
 15 10  1  0  0  0  0
 17 12  1  0  0  0  0
 19 13  1  0  0  0  0
M  END
