317623716.xyz
 OpenBabel07262113493D
N#Cc1cc(S)cc(c1C(F)F)C(=O)C
 22 22  0  0  0  0  0  0  0  0999 V2000
    3.4789    0.0061    5.0689 N   0  0  0  0  0  0  0  0  0  0  0  0
    2.4172    0.0356    4.6038 C   0  0  0  0  0  0  0  0  0  0  0  0
    1.1512    0.0674    3.9207 C   0  0  0  0  0  0  0  0  0  0  0  0
    1.1887   -0.0000    2.5217 C   0  0  0  0  0  0  0  0  0  0  0  0
    0.0000   -0.0000    1.7836 C   0  0  0  0  0  0  0  0  0  0  0  0
    0.0000    0.0000    0.0000 S   0  0  0  0  0  0  0  0  0  0  0  0
   -1.2162    0.0919    2.4677 C   0  0  0  0  0  0  0  0  0  0  0  0
   -1.2764    0.2045    3.8678 C   0  0  0  0  0  0  0  0  0  0  0  0
   -0.0782    0.1760    4.6137 C   0  0  0  0  0  0  0  0  0  0  0  0
   -0.0301    0.2198    6.1315 C   0  0  0  0  0  0  0  0  0  0  0  0
    0.6373   -0.8818    6.5794 F   0  0  0  0  0  0  0  0  0  0  0  0
    0.6756    1.3142    6.5237 F   0  0  0  0  0  0  0  0  0  0  0  0
   -2.6377    0.3707    4.5079 C   0  0  0  0  0  0  0  0  0  0  0  0
   -2.7674    0.8188    5.6292 O   0  0  0  0  0  0  0  0  0  0  0  0
   -3.8593   -0.0218    3.6992 C   0  0  0  0  0  0  0  0  0  0  0  0
    2.1501   -0.0610    2.0109 H   0  0  0  0  0  0  0  0  0  0  0  0
    0.7164   -2.1286   -0.5042 Au  0  0  0  0  0  0  0  0  0  0  0  0
   -2.1315    0.0874    1.8783 H   0  0  0  0  0  0  0  0  0  0  0  0
   -1.0172    0.2540    6.5987 H   0  0  0  0  0  0  0  0  0  0  0  0
   -3.7519   -1.0211    3.2510 H   0  0  0  0  0  0  0  0  0  0  0  0
   -4.7307    0.0025    4.3647 H   0  0  0  0  0  0  0  0  0  0  0  0
   -4.0262    0.6940    2.8781 H   0  0  0  0  0  0  0  0  0  0  0  0
  2  1  3  0  0  0  0
  3  2  1  0  0  0  0
  3  9  1  0  0  0  0
  4  3  2  0  0  0  0
  5  7  2  0  0  0  0
  5  4  1  0  0  0  0
  6  5  1  0  0  0  0
  7  8  1  0  0  0  0
  8 13  1  0  0  0  0
  8  9  2  0  0  0  0
  9 10  1  0  0  0  0
 10 12  1  0  0  0  0
 10 11  1  0  0  0  0
 10 19  1  0  0  0  0
 13 14  2  0  0  0  0
 15 21  1  0  0  0  0
 15 13  1  0  0  0  0
 16  4  1  0  0  0  0
 17  6  1  0  0  0  0
 18  7  1  0  0  0  0
 20 15  1  0  0  0  0
 22 15  1  0  0  0  0
M  END
