317681522.xyz
 OpenBabel07262113503D
COc1c(ccc(c1[N+](=O)[O-])S)C(=O)Cl
 21 21  0  0  0  0  0  0  0  0999 V2000
    2.7884   -1.3160    5.1301 C   0  0  0  0  0  0  0  0  0  0  0  0
    2.2860   -0.0735    4.6337 O   0  0  0  0  0  0  0  0  0  0  0  0
    1.1012   -0.1026    3.9859 C   0  0  0  0  0  0  0  0  0  0  0  0
   -0.1577   -0.2288    4.6165 C   0  0  0  0  0  0  0  0  0  0  0  0
   -1.3079   -0.2803    3.8046 C   0  0  0  0  0  0  0  0  0  0  0  0
   -1.2397   -0.1531    2.4253 C   0  0  0  0  0  0  0  0  0  0  0  0
    0.0000   -0.0000    1.7728 C   0  0  0  0  0  0  0  0  0  0  0  0
    1.1425    0.0000    2.5896 C   0  0  0  0  0  0  0  0  0  0  0  0
    2.4958    0.0842    2.0079 N   0  0  0  0  0  0  0  0  0  0  0  0
    2.8957    1.1899    1.6807 O   0  0  0  0  0  0  0  0  0  0  0  0
    3.1131   -0.9549    1.8902 O   0  0  0  0  0  0  0  0  0  0  0  0
    0.0000    0.0000    0.0000 S   0  0  0  0  0  0  0  0  0  0  0  0
   -0.4157   -0.3074    6.0795 C   0  0  0  0  0  0  0  0  0  0  0  0
   -1.3954   -0.7825    6.5644 O   0  0  0  0  0  0  0  0  0  0  0  0
    0.8023    0.4816    7.1396 Cl  0  0  0  0  0  0  0  0  0  0  0  0
    2.9737   -2.0093    4.2947 H   0  0  0  0  0  0  0  0  0  0  0  0
    2.0939   -1.7689    5.8551 H   0  0  0  0  0  0  0  0  0  0  0  0
    3.7327   -1.0844    5.6377 H   0  0  0  0  0  0  0  0  0  0  0  0
   -2.2746   -0.3932    4.2971 H   0  0  0  0  0  0  0  0  0  0  0  0
   -2.1496   -0.1602    1.8238 H   0  0  0  0  0  0  0  0  0  0  0  0
    1.2495    1.8703   -0.5375 Au  0  0  0  0  0  0  0  0  0  0  0  0
  1 18  1  0  0  0  0
  1 17  1  0  0  0  0
  2  1  1  0  0  0  0
  3  4  1  0  0  0  0
  3  2  1  0  0  0  0
  4 13  1  0  0  0  0
  5 19  1  0  0  0  0
  5  4  2  0  0  0  0
  6  5  1  0  0  0  0
  7  6  2  0  0  0  0
  7  8  1  0  0  0  0
  8  3  2  0  0  0  0
  9  8  1  0  0  0  0
 10  9  2  0  0  0  0
 11  9  2  0  0  0  0
 12  7  1  0  0  0  0
 13 14  2  0  0  0  0
 13 15  1  0  0  0  0
 16  1  1  0  0  0  0
 20  6  1  0  0  0  0
 21 12  1  0  0  0  0
M  END
