317675895.xyz
 OpenBabel07262113503D
COc1cc(cc(c1C)S)C(=O)Cl
 22 22  0  0  0  0  0  0  0  0999 V2000
   -2.2648    0.2643    6.0200 C   0  0  0  0  0  0  0  0  0  0  0  0
   -2.2789    0.1724    4.6118 O   0  0  0  0  0  0  0  0  0  0  0  0
   -1.1021    0.1308    3.9394 C   0  0  0  0  0  0  0  0  0  0  0  0
    0.1397    0.1453    4.5735 C   0  0  0  0  0  0  0  0  0  0  0  0
    1.3215    0.0838    3.8113 C   0  0  0  0  0  0  0  0  0  0  0  0
    1.2519   -0.0000    2.4218 C   0  0  0  0  0  0  0  0  0  0  0  0
    0.0000    0.0000    1.7832 C   0  0  0  0  0  0  0  0  0  0  0  0
   -1.1983    0.0764    2.5251 C   0  0  0  0  0  0  0  0  0  0  0  0
   -2.5456    0.0674    1.8708 C   0  0  0  0  0  0  0  0  0  0  0  0
    0.0000    0.0000    0.0000 S   0  0  0  0  0  0  0  0  0  0  0  0
    2.5935    0.0988    4.5763 C   0  0  0  0  0  0  0  0  0  0  0  0
    2.6886    0.1592    5.7624 O   0  0  0  0  0  0  0  0  0  0  0  0
    4.0946    0.0164    3.5676 Cl  0  0  0  0  0  0  0  0  0  0  0  0
   -1.7550    1.1815    6.3636 H   0  0  0  0  0  0  0  0  0  0  0  0
   -3.3143    0.2950    6.3400 H   0  0  0  0  0  0  0  0  0  0  0  0
   -1.7724   -0.6101    6.4805 H   0  0  0  0  0  0  0  0  0  0  0  0
    0.2311    0.1980    5.6563 H   0  0  0  0  0  0  0  0  0  0  0  0
    2.1592   -0.0680    1.8251 H   0  0  0  0  0  0  0  0  0  0  0  0
   -3.3182    0.4451    2.5500 H   0  0  0  0  0  0  0  0  0  0  0  0
   -2.5275    0.6561    0.9433 H   0  0  0  0  0  0  0  0  0  0  0  0
   -2.8224   -0.9631    1.5791 H   0  0  0  0  0  0  0  0  0  0  0  0
   -0.7769   -2.1092   -0.5171 Au  0  0  0  0  0  0  0  0  0  0  0  0
  1 15  1  0  0  0  0
  1 14  1  0  0  0  0
  1 16  1  0  0  0  0
  2  1  1  0  0  0  0
  3  4  1  0  0  0  0
  3  2  1  0  0  0  0
  4 17  1  0  0  0  0
  5  4  2  0  0  0  0
  5 11  1  0  0  0  0
  6  5  1  0  0  0  0
  7  6  2  0  0  0  0
  7  8  1  0  0  0  0
  8  3  2  0  0  0  0
  9  8  1  0  0  0  0
  9 19  1  0  0  0  0
 10  7  1  0  0  0  0
 11 12  2  0  0  0  0
 13 11  1  0  0  0  0
 18  6  1  0  0  0  0
 20  9  1  0  0  0  0
 21  9  1  0  0  0  0
 22 10  1  0  0  0  0
M  END
