317646751.xyz
 OpenBabel07262113493D
COc1c(OC(F)F)cc(cc1C#N)S
 22 22  0  0  0  0  0  0  0  0999 V2000
   -0.4521    0.8065    6.7244 C   0  0  0  0  0  0  0  0  0  0  0  0
    0.0363   -0.2955    5.9505 O   0  0  0  0  0  0  0  0  0  0  0  0
    0.0111   -0.1643    4.6040 C   0  0  0  0  0  0  0  0  0  0  0  0
   -1.1981   -0.1734    3.8839 C   0  0  0  0  0  0  0  0  0  0  0  0
   -2.3916   -0.2352    4.5715 O   0  0  0  0  0  0  0  0  0  0  0  0
   -2.7148   -1.4557    5.1280 C   0  0  0  0  0  0  0  0  0  0  0  0
   -3.6212   -1.2156    6.0814 F   0  0  0  0  0  0  0  0  0  0  0  0
   -3.2826   -2.2471    4.1927 F   0  0  0  0  0  0  0  0  0  0  0  0
   -1.2075   -0.0973    2.4958 C   0  0  0  0  0  0  0  0  0  0  0  0
   -0.0000   -0.0000    1.7827 C   0  0  0  0  0  0  0  0  0  0  0  0
    1.2123   -0.0000    2.4838 C   0  0  0  0  0  0  0  0  0  0  0  0
    1.2226   -0.0783    3.8863 C   0  0  0  0  0  0  0  0  0  0  0  0
    2.4602   -0.0570    4.6102 C   0  0  0  0  0  0  0  0  0  0  0  0
    3.4720   -0.0252    5.1772 N   0  0  0  0  0  0  0  0  0  0  0  0
    0.0000    0.0000    0.0000 S   0  0  0  0  0  0  0  0  0  0  0  0
   -0.3158    0.5256    7.7760 H   0  0  0  0  0  0  0  0  0  0  0  0
   -1.5176    0.9954    6.5241 H   0  0  0  0  0  0  0  0  0  0  0  0
    0.1365    1.7133    6.5102 H   0  0  0  0  0  0  0  0  0  0  0  0
   -1.8399   -1.9748    5.5536 H   0  0  0  0  0  0  0  0  0  0  0  0
   -2.1646   -0.1185    1.9742 H   0  0  0  0  0  0  0  0  0  0  0  0
    2.1541    0.0699    1.9394 H   0  0  0  0  0  0  0  0  0  0  0  0
   -0.2361    2.2348   -0.5057 Au  0  0  0  0  0  0  0  0  0  0  0  0
  1 16  1  0  0  0  0
  2  1  1  0  0  0  0
  3  2  1  0  0  0  0
  4  5  1  0  0  0  0
  4  3  1  0  0  0  0
  5  6  1  0  0  0  0
  6 19  1  0  0  0  0
  6  7  1  0  0  0  0
  8  6  1  0  0  0  0
  9  4  2  0  0  0  0
 10 11  2  0  0  0  0
 10  9  1  0  0  0  0
 11 12  1  0  0  0  0
 12  3  2  0  0  0  0
 12 13  1  0  0  0  0
 13 14  3  0  0  0  0
 15 10  1  0  0  0  0
 17  1  1  0  0  0  0
 18  1  1  0  0  0  0
 20  9  1  0  0  0  0
 21 11  1  0  0  0  0
 22 15  1  0  0  0  0
M  END
