317674837.xyz
 OpenBabel07262113503D
FC(c1ccc(c(c1C)S)C(=O)C)F
 24 24  0  0  0  0  0  0  0  0999 V2000
   -3.2054   -0.9269    4.6073 F   0  0  0  0  0  0  0  0  0  0  0  0
   -2.4345    0.1939    4.7369 C   0  0  0  0  0  0  0  0  0  0  0  0
   -1.1839    0.1089    3.9003 C   0  0  0  0  0  0  0  0  0  0  0  0
    0.0377    0.0931    4.5784 C   0  0  0  0  0  0  0  0  0  0  0  0
    1.2415    0.0234    3.8799 C   0  0  0  0  0  0  0  0  0  0  0  0
    1.2274   -0.0000    2.4858 C   0  0  0  0  0  0  0  0  0  0  0  0
    0.0000    0.0000    1.7903 C   0  0  0  0  0  0  0  0  0  0  0  0
   -1.2306    0.0401    2.4906 C   0  0  0  0  0  0  0  0  0  0  0  0
   -2.5394    0.0176    1.7451 C   0  0  0  0  0  0  0  0  0  0  0  0
    0.0000    0.0000    0.0000 S   0  0  0  0  0  0  0  0  0  0  0  0
    2.5532   -0.0728    1.7568 C   0  0  0  0  0  0  0  0  0  0  0  0
    3.1380   -1.1300    1.6598 O   0  0  0  0  0  0  0  0  0  0  0  0
    3.1049    1.2283    1.2308 C   0  0  0  0  0  0  0  0  0  0  0  0
   -3.2113    1.2513    4.3676 F   0  0  0  0  0  0  0  0  0  0  0  0
   -2.1946    0.3091    5.8077 H   0  0  0  0  0  0  0  0  0  0  0  0
    0.0478    0.1350    5.6706 H   0  0  0  0  0  0  0  0  0  0  0  0
    2.1923   -0.0012    4.4169 H   0  0  0  0  0  0  0  0  0  0  0  0
   -3.3748   -0.2694    2.3901 H   0  0  0  0  0  0  0  0  0  0  0  0
   -2.7612    1.0108    1.3214 H   0  0  0  0  0  0  0  0  0  0  0  0
   -2.4802   -0.6792    0.8976 H   0  0  0  0  0  0  0  0  0  0  0  0
    0.7897   -2.1211   -0.4635 Au  0  0  0  0  0  0  0  0  0  0  0  0
    3.2653    1.9258    2.0698 H   0  0  0  0  0  0  0  0  0  0  0  0
    2.3689    1.6898    0.5553 H   0  0  0  0  0  0  0  0  0  0  0  0
    4.0503    1.0486    0.7022 H   0  0  0  0  0  0  0  0  0  0  0  0
  1  2  1  0  0  0  0
  2 15  1  0  0  0  0
  3  4  1  0  0  0  0
  3  2  1  0  0  0  0
  4 16  1  0  0  0  0
  5 17  1  0  0  0  0
  5  4  2  0  0  0  0
  6  5  1  0  0  0  0
  7  6  2  0  0  0  0
  7  8  1  0  0  0  0
  8  3  2  0  0  0  0
  9 18  1  0  0  0  0
  9  8  1  0  0  0  0
 10  7  1  0  0  0  0
 11  6  1  0  0  0  0
 12 11  2  0  0  0  0
 13 11  1  0  0  0  0
 13 22  1  0  0  0  0
 14  2  1  0  0  0  0
 19  9  1  0  0  0  0
 20  9  1  0  0  0  0
 21 10  1  0  0  0  0
 23 13  1  0  0  0  0
 24 13  1  0  0  0  0
M  END
