317653267.xyz
 OpenBabel07262113493D
FC(Oc1c(ccc(c1C(F)(F)F)S)C(=O)Cl)F
 22 22  0  0  0  0  0  0  0  0999 V2000
   -3.8077   -0.6958    5.8963 F   0  0  0  0  0  0  0  0  0  0  0  0
   -2.7424   -1.0032    5.1652 C   0  0  0  0  0  0  0  0  0  0  0  0
   -2.1536    0.1889    4.7954 O   0  0  0  0  0  0  0  0  0  0  0  0
   -1.0537    0.1216    3.9831 C   0  0  0  0  0  0  0  0  0  0  0  0
    0.2182    0.1169    4.6006 C   0  0  0  0  0  0  0  0  0  0  0  0
    1.3632    0.0501    3.8021 C   0  0  0  0  0  0  0  0  0  0  0  0
    1.2535   -0.0000    2.4194 C   0  0  0  0  0  0  0  0  0  0  0  0
    0.0000   -0.0000    1.7921 C   0  0  0  0  0  0  0  0  0  0  0  0
   -1.1789    0.0705    2.5807 C   0  0  0  0  0  0  0  0  0  0  0  0
   -2.5369    0.0918    1.8823 C   0  0  0  0  0  0  0  0  0  0  0  0
   -2.6202    1.1040    1.0154 F   0  0  0  0  0  0  0  0  0  0  0  0
   -2.7405   -1.0588    1.2073 F   0  0  0  0  0  0  0  0  0  0  0  0
   -3.5762    0.2174    2.7196 F   0  0  0  0  0  0  0  0  0  0  0  0
    0.0000    0.0000    0.0000 S   0  0  0  0  0  0  0  0  0  0  0  0
    0.3274    0.2548    6.0840 C   0  0  0  0  0  0  0  0  0  0  0  0
   -0.3792    0.8758    6.8021 O   0  0  0  0  0  0  0  0  0  0  0  0
    1.7474   -0.6529    6.7650 Cl  0  0  0  0  0  0  0  0  0  0  0  0
   -1.8845   -1.7261    5.9268 F   0  0  0  0  0  0  0  0  0  0  0  0
   -3.0330   -1.6212    4.2981 H   0  0  0  0  0  0  0  0  0  0  0  0
    2.3432    0.0385    4.2784 H   0  0  0  0  0  0  0  0  0  0  0  0
    2.1467   -0.0470    1.7959 H   0  0  0  0  0  0  0  0  0  0  0  0
   -0.1250   -2.2563   -0.4523 Au  0  0  0  0  0  0  0  0  0  0  0  0
  2  1  1  0  0  0  0
  2 18  1  0  0  0  0
  3  2  1  0  0  0  0
  4  5  1  0  0  0  0
  4  3  1  0  0  0  0
  5 15  1  0  0  0  0
  6 20  1  0  0  0  0
  6  5  2  0  0  0  0
  7  6  1  0  0  0  0
  8  7  2  0  0  0  0
  8  9  1  0  0  0  0
  9  4  2  0  0  0  0
 10  9  1  0  0  0  0
 10 13  1  0  0  0  0
 11 10  1  0  0  0  0
 12 10  1  0  0  0  0
 14  8  1  0  0  0  0
 15 17  1  0  0  0  0
 15 16  2  0  0  0  0
 19  2  1  0  0  0  0
 21  7  1  0  0  0  0
 22 14  1  0  0  0  0
M  END
