317653779.xyz
 OpenBabel07262113503D
FC(Oc1cc(S)cc(c1C(=O)Cl)C(F)(F)F)F
 22 22  0  0  0  0  0  0  0  0999 V2000
   -4.0339    0.1299    3.4319 F   0  0  0  0  0  0  0  0  0  0  0  0
   -3.3900   -0.7708    4.2135 C   0  0  0  0  0  0  0  0  0  0  0  0
   -2.2308   -0.2288    4.7160 O   0  0  0  0  0  0  0  0  0  0  0  0
   -1.1195   -0.1495    3.9192 C   0  0  0  0  0  0  0  0  0  0  0  0
   -1.1842   -0.0785    2.5289 C   0  0  0  0  0  0  0  0  0  0  0  0
   -0.0000   -0.0000    1.7795 C   0  0  0  0  0  0  0  0  0  0  0  0
    0.0000    0.0000    0.0000 S   0  0  0  0  0  0  0  0  0  0  0  0
    1.2371   -0.0000    2.4382 C   0  0  0  0  0  0  0  0  0  0  0  0
    1.2950   -0.0905    3.8304 C   0  0  0  0  0  0  0  0  0  0  0  0
    0.1175   -0.1527    4.5907 C   0  0  0  0  0  0  0  0  0  0  0  0
    0.1376   -0.2581    6.0880 C   0  0  0  0  0  0  0  0  0  0  0  0
    0.5172   -1.1899    6.7142 O   0  0  0  0  0  0  0  0  0  0  0  0
   -0.4709    1.2292    6.8775 Cl  0  0  0  0  0  0  0  0  0  0  0  0
    2.6520   -0.1200    4.5071 C   0  0  0  0  0  0  0  0  0  0  0  0
    2.9608   -1.3524    4.9317 F   0  0  0  0  0  0  0  0  0  0  0  0
    3.6257    0.2734    3.6724 F   0  0  0  0  0  0  0  0  0  0  0  0
    2.6822    0.6964    5.5747 F   0  0  0  0  0  0  0  0  0  0  0  0
   -4.1713   -1.0460    5.2552 F   0  0  0  0  0  0  0  0  0  0  0  0
   -3.2009   -1.6816    3.6167 H   0  0  0  0  0  0  0  0  0  0  0  0
   -2.1469   -0.0518    2.0213 H   0  0  0  0  0  0  0  0  0  0  0  0
   -1.3620    1.7764   -0.5328 Au  0  0  0  0  0  0  0  0  0  0  0  0
    2.1572    0.0866    1.8623 H   0  0  0  0  0  0  0  0  0  0  0  0
  1  2  1  0  0  0  0
  2  3  1  0  0  0  0
  2 18  1  0  0  0  0
  4 10  1  0  0  0  0
  4  3  1  0  0  0  0
  5  4  2  0  0  0  0
  6  8  2  0  0  0  0
  6  5  1  0  0  0  0
  7  6  1  0  0  0  0
  8  9  1  0  0  0  0
  9 14  1  0  0  0  0
  9 10  2  0  0  0  0
 10 11  1  0  0  0  0
 11 12  2  0  0  0  0
 11 13  1  0  0  0  0
 14 15  1  0  0  0  0
 14 17  1  0  0  0  0
 16 14  1  0  0  0  0
 19  2  1  0  0  0  0
 20  5  1  0  0  0  0
 21  7  1  0  0  0  0
 22  8  1  0  0  0  0
M  END
