317655396.xyz
 OpenBabel07262113503D
FC(c1cc(OC(F)(F)F)c(cc1[N+](=O)[O-])S)F
 22 22  0  0  0  0  0  0  0  0999 V2000
   -0.3498    1.5634    6.5748 F   0  0  0  0  0  0  0  0  0  0  0  0
   -0.1621    0.3012    6.1278 C   0  0  0  0  0  0  0  0  0  0  0  0
   -0.1719    0.2305    4.6145 C   0  0  0  0  0  0  0  0  0  0  0  0
    1.0585    0.0818    3.9703 C   0  0  0  0  0  0  0  0  0  0  0  0
    1.1488    0.0000    2.5828 C   0  0  0  0  0  0  0  0  0  0  0  0
    2.3899   -0.1898    1.9978 O   0  0  0  0  0  0  0  0  0  0  0  0
    3.2367    0.8678    1.8821 C   0  0  0  0  0  0  0  0  0  0  0  0
    3.7521    1.2190    3.0706 F   0  0  0  0  0  0  0  0  0  0  0  0
    2.6366    1.9417    1.3725 F   0  0  0  0  0  0  0  0  0  0  0  0
    4.2280    0.4958    1.0853 F   0  0  0  0  0  0  0  0  0  0  0  0
   -0.0000    0.0000    1.7704 C   0  0  0  0  0  0  0  0  0  0  0  0
   -1.2415    0.0977    2.4207 C   0  0  0  0  0  0  0  0  0  0  0  0
   -1.3162    0.2466    3.8007 C   0  0  0  0  0  0  0  0  0  0  0  0
   -2.6751    0.4081    4.3636 N   0  0  0  0  0  0  0  0  0  0  0  0
   -2.8046    1.1818    5.2917 O   0  0  0  0  0  0  0  0  0  0  0  0
   -3.5703   -0.2216    3.8264 O   0  0  0  0  0  0  0  0  0  0  0  0
    0.0000    0.0000    0.0000 S   0  0  0  0  0  0  0  0  0  0  0  0
   -1.1234   -0.4950    6.6577 F   0  0  0  0  0  0  0  0  0  0  0  0
    0.8136   -0.0485    6.5097 H   0  0  0  0  0  0  0  0  0  0  0  0
    1.9791    0.0282    4.5532 H   0  0  0  0  0  0  0  0  0  0  0  0
   -2.1651    0.0601    1.8439 H   0  0  0  0  0  0  0  0  0  0  0  0
    1.5699   -1.5869   -0.5808 Au  0  0  0  0  0  0  0  0  0  0  0  0
  2 19  1  0  0  0  0
  2  1  1  0  0  0  0
  2 18  1  0  0  0  0
  3  2  1  0  0  0  0
  4 20  1  0  0  0  0
  4  3  1  0  0  0  0
  5  4  2  0  0  0  0
  6  5  1  0  0  0  0
  7  6  1  0  0  0  0
  7  8  1  0  0  0  0
  9  7  1  0  0  0  0
 10  7  1  0  0  0  0
 11 12  2  0  0  0  0
 11  5  1  0  0  0  0
 12 13  1  0  0  0  0
 13 14  1  0  0  0  0
 13  3  2  0  0  0  0
 14 15  2  0  0  0  0
 16 14  2  0  0  0  0
 17 11  1  0  0  0  0
 21 12  1  0  0  0  0
 22 17  1  0  0  0  0
M  END
