317667166.xyz
 OpenBabel07262113503D
CC(=O)c1c(S)c(ccc1C(F)(F)F)C(F)F
 24 24  0  0  0  0  0  0  0  0999 V2000
    3.0789    1.2213    1.1786 C   0  0  0  0  0  0  0  0  0  0  0  0
    2.5279   -0.0753    1.7097 C   0  0  0  0  0  0  0  0  0  0  0  0
    3.0605   -1.1498    1.5499 O   0  0  0  0  0  0  0  0  0  0  0  0
    1.2224    0.0000    2.4944 C   0  0  0  0  0  0  0  0  0  0  0  0
    0.0000    0.0000    1.7923 C   0  0  0  0  0  0  0  0  0  0  0  0
    0.0000    0.0000    0.0000 S   0  0  0  0  0  0  0  0  0  0  0  0
   -1.2162    0.0286    2.5111 C   0  0  0  0  0  0  0  0  0  0  0  0
   -1.1918    0.0636    3.9055 C   0  0  0  0  0  0  0  0  0  0  0  0
    0.0145    0.0436    4.6022 C   0  0  0  0  0  0  0  0  0  0  0  0
    1.2205    0.0000    3.9006 C   0  0  0  0  0  0  0  0  0  0  0  0
    2.5140   -0.0937    4.6832 C   0  0  0  0  0  0  0  0  0  0  0  0
    2.3333    0.2193    5.9768 F   0  0  0  0  0  0  0  0  0  0  0  0
    3.0298   -1.3289    4.6393 F   0  0  0  0  0  0  0  0  0  0  0  0
    3.4529    0.7467    4.2013 F   0  0  0  0  0  0  0  0  0  0  0  0
   -2.5703   -0.0047    1.8391 C   0  0  0  0  0  0  0  0  0  0  0  0
   -2.7393   -1.1521    1.1301 F   0  0  0  0  0  0  0  0  0  0  0  0
   -2.7335    1.0413    0.9906 F   0  0  0  0  0  0  0  0  0  0  0  0
    4.0149    1.0288    0.6380 H   0  0  0  0  0  0  0  0  0  0  0  0
    3.2559    1.9162    2.0133 H   0  0  0  0  0  0  0  0  0  0  0  0
    2.3400    1.6795    0.5044 H   0  0  0  0  0  0  0  0  0  0  0  0
    0.5810   -2.1986   -0.3973 Au  0  0  0  0  0  0  0  0  0  0  0  0
   -2.1329    0.0936    4.4600 H   0  0  0  0  0  0  0  0  0  0  0  0
    0.0227    0.0599    5.6917 H   0  0  0  0  0  0  0  0  0  0  0  0
   -3.3765    0.0436    2.5922 H   0  0  0  0  0  0  0  0  0  0  0  0
  1  2  1  0  0  0  0
  1 19  1  0  0  0  0
  2  4  1  0  0  0  0
  3  2  2  0  0  0  0
  4 10  1  0  0  0  0
  5  4  2  0  0  0  0
  5  7  1  0  0  0  0
  6  5  1  0  0  0  0
  7  8  2  0  0  0  0
  8 22  1  0  0  0  0
  8  9  1  0  0  0  0
  9 23  1  0  0  0  0
 10  9  2  0  0  0  0
 10 11  1  0  0  0  0
 11 12  1  0  0  0  0
 13 11  1  0  0  0  0
 14 11  1  0  0  0  0
 15  7  1  0  0  0  0
 15 24  1  0  0  0  0
 16 15  1  0  0  0  0
 17 15  1  0  0  0  0
 18  1  1  0  0  0  0
 20  1  1  0  0  0  0
 21  6  1  0  0  0  0
M  END
