317664888.xyz
 OpenBabel07262113503D
COc1cc(cc(c1S)OC)C(=O)Cl
 23 23  0  0  0  0  0  0  0  0999 V2000
   -3.6231   -0.1476    2.2489 C   0  0  0  0  0  0  0  0  0  0  0  0
   -2.3454   -0.0945    1.6523 O   0  0  0  0  0  0  0  0  0  0  0  0
   -1.2484   -0.0818    2.4352 C   0  0  0  0  0  0  0  0  0  0  0  0
   -1.3033   -0.1572    3.8307 C   0  0  0  0  0  0  0  0  0  0  0  0
   -0.1161   -0.1487    4.5718 C   0  0  0  0  0  0  0  0  0  0  0  0
    1.1295   -0.0666    3.9309 C   0  0  0  0  0  0  0  0  0  0  0  0
    1.1900    0.0000    2.5375 C   0  0  0  0  0  0  0  0  0  0  0  0
   -0.0000    0.0000    1.7634 C   0  0  0  0  0  0  0  0  0  0  0  0
    0.0000    0.0000    0.0000 S   0  0  0  0  0  0  0  0  0  0  0  0
    2.3498    0.0986    1.8546 O   0  0  0  0  0  0  0  0  0  0  0  0
    3.5748    0.0842    2.5584 C   0  0  0  0  0  0  0  0  0  0  0  0
   -0.0805   -0.2231    6.0518 C   0  0  0  0  0  0  0  0  0  0  0  0
    0.8988   -0.2182    6.7297 O   0  0  0  0  0  0  0  0  0  0  0  0
   -1.7090   -0.3280    6.8544 Cl  0  0  0  0  0  0  0  0  0  0  0  0
   -4.3481   -0.1273    1.4254 H   0  0  0  0  0  0  0  0  0  0  0  0
   -3.8014    0.7190    2.9095 H   0  0  0  0  0  0  0  0  0  0  0  0
   -3.7628   -1.0755    2.8309 H   0  0  0  0  0  0  0  0  0  0  0  0
   -2.2533   -0.2199    4.3529 H   0  0  0  0  0  0  0  0  0  0  0  0
    2.0270   -0.0654    4.5448 H   0  0  0  0  0  0  0  0  0  0  0  0
    1.4077    1.7490   -0.5379 Au  0  0  0  0  0  0  0  0  0  0  0  0
    4.3645    0.1583    1.8000 H   0  0  0  0  0  0  0  0  0  0  0  0
    3.7025   -0.8530    3.1264 H   0  0  0  0  0  0  0  0  0  0  0  0
    3.6556    0.9386    3.2522 H   0  0  0  0  0  0  0  0  0  0  0  0
  1 17  1  0  0  0  0
  1 16  1  0  0  0  0
  2  1  1  0  0  0  0
  2  3  1  0  0  0  0
  3  4  1  0  0  0  0
  4 18  1  0  0  0  0
  4  5  2  0  0  0  0
  5 12  1  0  0  0  0
  6 19  1  0  0  0  0
  6  5  1  0  0  0  0
  7  6  2  0  0  0  0
  8  3  2  0  0  0  0
  8  7  1  0  0  0  0
  9  8  1  0  0  0  0
 10  7  1  0  0  0  0
 10 11  1  0  0  0  0
 11 22  1  0  0  0  0
 11 23  1  0  0  0  0
 12 13  2  0  0  0  0
 12 14  1  0  0  0  0
 15  1  1  0  0  0  0
 20  9  1  0  0  0  0
 21 11  1  0  0  0  0
M  END
