317664374.xyz
 OpenBabel07262113503D
COc1cc(cc(c1OC)S)C(=O)C
 26 26  0  0  0  0  0  0  0  0999 V2000
   -2.3506   -0.4228    5.9640 C   0  0  0  0  0  0  0  0  0  0  0  0
   -2.3337   -0.3066    4.5570 O   0  0  0  0  0  0  0  0  0  0  0  0
   -1.1360   -0.2200    3.9298 C   0  0  0  0  0  0  0  0  0  0  0  0
    0.0993   -0.2504    4.5735 C   0  0  0  0  0  0  0  0  0  0  0  0
    1.2903   -0.1399    3.8337 C   0  0  0  0  0  0  0  0  0  0  0  0
    1.2379   -0.0000    2.4450 C   0  0  0  0  0  0  0  0  0  0  0  0
   -0.0000   -0.0000    1.7779 C   0  0  0  0  0  0  0  0  0  0  0  0
   -1.1914   -0.0983    2.5188 C   0  0  0  0  0  0  0  0  0  0  0  0
   -2.3921    0.0018    1.8966 O   0  0  0  0  0  0  0  0  0  0  0  0
   -3.1357   -1.2028    1.7448 C   0  0  0  0  0  0  0  0  0  0  0  0
    0.0000    0.0000    0.0000 S   0  0  0  0  0  0  0  0  0  0  0  0
    2.5805   -0.1640    4.5982 C   0  0  0  0  0  0  0  0  0  0  0  0
    2.5801   -0.2824    5.8092 O   0  0  0  0  0  0  0  0  0  0  0  0
    3.8792   -0.0371    3.8268 C   0  0  0  0  0  0  0  0  0  0  0  0
   -1.8770    0.4488    6.4485 H   0  0  0  0  0  0  0  0  0  0  0  0
   -1.8369   -1.3392    6.3040 H   0  0  0  0  0  0  0  0  0  0  0  0
   -3.4065   -0.4700    6.2599 H   0  0  0  0  0  0  0  0  0  0  0  0
    0.1906   -0.3458    5.6543 H   0  0  0  0  0  0  0  0  0  0  0  0
    2.1440    0.1037    1.8489 H   0  0  0  0  0  0  0  0  0  0  0  0
   -3.4027   -1.6285    2.7247 H   0  0  0  0  0  0  0  0  0  0  0  0
   -4.0507   -0.9393    1.1979 H   0  0  0  0  0  0  0  0  0  0  0  0
   -2.5624   -1.9388    1.1566 H   0  0  0  0  0  0  0  0  0  0  0  0
   -1.4200    1.7402   -0.5215 Au  0  0  0  0  0  0  0  0  0  0  0  0
    3.9122    0.9117    3.2682 H   0  0  0  0  0  0  0  0  0  0  0  0
    3.9801   -0.8511    3.0915 H   0  0  0  0  0  0  0  0  0  0  0  0
    4.7165   -0.0756    4.5344 H   0  0  0  0  0  0  0  0  0  0  0  0
  1 17  1  0  0  0  0
  1 16  1  0  0  0  0
  1 15  1  0  0  0  0
  2  1  1  0  0  0  0
  3  2  1  0  0  0  0
  3  4  1  0  0  0  0
  4 18  1  0  0  0  0
  5  4  2  0  0  0  0
  5 12  1  0  0  0  0
  6  5  1  0  0  0  0
  7  6  2  0  0  0  0
  7  8  1  0  0  0  0
  8  3  2  0  0  0  0
  9  8  1  0  0  0  0
 10  9  1  0  0  0  0
 10 20  1  0  0  0  0
 11  7  1  0  0  0  0
 12 13  2  0  0  0  0
 14 26  1  0  0  0  0
 14 12  1  0  0  0  0
 19  6  1  0  0  0  0
 21 10  1  0  0  0  0
 22 10  1  0  0  0  0
 23 11  1  0  0  0  0
 24 14  1  0  0  0  0
 25 14  1  0  0  0  0
M  END
