317698564.xyz
 OpenBabel07262113503D
FC(Oc1cc(OC(F)(F)F)c(cc1I)S)F
 21 21  0  0  0  0  0  0  0  0999 V2000
   -1.8266    0.1768    6.8510 F   0  0  0  0  0  0  0  0  0  0  0  0
   -0.7639    0.9958    6.6559 C   0  0  0  0  0  0  0  0  0  0  0  0
    0.2189    0.3485    5.9473 O   0  0  0  0  0  0  0  0  0  0  0  0
    0.1097    0.2423    4.5894 C   0  0  0  0  0  0  0  0  0  0  0  0
   -1.1267    0.1913    3.9349 C   0  0  0  0  0  0  0  0  0  0  0  0
   -1.1696    0.0995    2.5465 C   0  0  0  0  0  0  0  0  0  0  0  0
   -2.3993   -0.0062    1.9157 O   0  0  0  0  0  0  0  0  0  0  0  0
   -3.1719    1.1005    1.7901 C   0  0  0  0  0  0  0  0  0  0  0  0
   -2.4954    2.1403    1.3005 F   0  0  0  0  0  0  0  0  0  0  0  0
   -3.6871    1.4843    2.9732 F   0  0  0  0  0  0  0  0  0  0  0  0
   -4.1721    0.8026    0.9754 F   0  0  0  0  0  0  0  0  0  0  0  0
   -0.0000   -0.0000    1.7738 C   0  0  0  0  0  0  0  0  0  0  0  0
    1.2316   -0.0000    2.4537 C   0  0  0  0  0  0  0  0  0  0  0  0
    1.2941    0.1398    3.8390 C   0  0  0  0  0  0  0  0  0  0  0  0
    3.1722    0.1850    4.8103 I   0  0  0  0  0  0  0  0  0  0  0  0
    0.0000    0.0000    0.0000 S   0  0  0  0  0  0  0  0  0  0  0  0
   -0.2510    1.2929    7.8491 F   0  0  0  0  0  0  0  0  0  0  0  0
   -1.1159    1.9102    6.1446 H   0  0  0  0  0  0  0  0  0  0  0  0
   -2.0588    0.2015    4.4964 H   0  0  0  0  0  0  0  0  0  0  0  0
    2.1486   -0.0972    1.8721 H   0  0  0  0  0  0  0  0  0  0  0  0
   -1.2757   -1.8463   -0.5300 Au  0  0  0  0  0  0  0  0  0  0  0  0
  2  1  1  0  0  0  0
  2 17  1  0  0  0  0
  3  2  1  0  0  0  0
  4  3  1  0  0  0  0
  5 19  1  0  0  0  0
  5  4  1  0  0  0  0
  6  5  2  0  0  0  0
  7  6  1  0  0  0  0
  8  7  1  0  0  0  0
  8 10  1  0  0  0  0
  9  8  1  0  0  0  0
 11  8  1  0  0  0  0
 12 13  2  0  0  0  0
 12  6  1  0  0  0  0
 13 14  1  0  0  0  0
 14  4  2  0  0  0  0
 14 15  1  0  0  0  0
 16 12  1  0  0  0  0
 18  2  1  0  0  0  0
 20 13  1  0  0  0  0
 21 16  1  0  0  0  0
M  END
