317665331.xyz
 OpenBabel07262113503D
CCc1cc(S)c(cc1C(F)F)C(=O)Cl
 24 24  0  0  0  0  0  0  0  0999 V2000
    3.4717    1.5730    4.2732 C   0  0  0  0  0  0  0  0  0  0  0  0
    2.8728    0.1587    4.3091 C   0  0  0  0  0  0  0  0  0  0  0  0
    1.4632    0.1238    3.7673 C   0  0  0  0  0  0  0  0  0  0  0  0
    1.2676    0.0000    2.3884 C   0  0  0  0  0  0  0  0  0  0  0  0
    0.0000    0.0000    1.7824 C   0  0  0  0  0  0  0  0  0  0  0  0
    0.0000    0.0000    0.0000 S   0  0  0  0  0  0  0  0  0  0  0  0
   -1.1428    0.1457    2.6161 C   0  0  0  0  0  0  0  0  0  0  0  0
   -0.9476    0.2703    3.9996 C   0  0  0  0  0  0  0  0  0  0  0  0
    0.3174    0.2558    4.5814 C   0  0  0  0  0  0  0  0  0  0  0  0
    0.3991    0.3657    6.0807 C   0  0  0  0  0  0  0  0  0  0  0  0
    0.9773   -0.7442    6.6259 F   0  0  0  0  0  0  0  0  0  0  0  0
    1.1602    1.4322    6.4632 F   0  0  0  0  0  0  0  0  0  0  0  0
   -2.5205    0.1271    2.0639 C   0  0  0  0  0  0  0  0  0  0  0  0
   -2.8998   -0.3935    1.0656 O   0  0  0  0  0  0  0  0  0  0  0  0
   -3.7337    1.0386    3.0815 Cl  0  0  0  0  0  0  0  0  0  0  0  0
    2.8810    2.2578    4.8973 H   0  0  0  0  0  0  0  0  0  0  0  0
    3.4888    1.9708    3.2463 H   0  0  0  0  0  0  0  0  0  0  0  0
    4.5049    1.5642    4.6532 H   0  0  0  0  0  0  0  0  0  0  0  0
    2.8946   -0.2298    5.3351 H   0  0  0  0  0  0  0  0  0  0  0  0
    3.4945   -0.5164    3.6990 H   0  0  0  0  0  0  0  0  0  0  0  0
    2.1378   -0.1096    1.7381 H   0  0  0  0  0  0  0  0  0  0  0  0
   -0.9160   -2.0496   -0.5350 Au  0  0  0  0  0  0  0  0  0  0  0  0
   -1.8260    0.3817    4.6355 H   0  0  0  0  0  0  0  0  0  0  0  0
   -0.5988    0.4841    6.5353 H   0  0  0  0  0  0  0  0  0  0  0  0
  1  2  1  0  0  0  0
  1 18  1  0  0  0  0
  1 16  1  0  0  0  0
  2 19  1  0  0  0  0
  3  2  1  0  0  0  0
  3  9  2  0  0  0  0
  4  3  1  0  0  0  0
  5  4  2  0  0  0  0
  5  7  1  0  0  0  0
  6  5  1  0  0  0  0
  7  8  2  0  0  0  0
  8  9  1  0  0  0  0
  8 23  1  0  0  0  0
  9 10  1  0  0  0  0
 10 12  1  0  0  0  0
 10 24  1  0  0  0  0
 10 11  1  0  0  0  0
 13  7  1  0  0  0  0
 13 15  1  0  0  0  0
 14 13  2  0  0  0  0
 17  1  1  0  0  0  0
 20  2  1  0  0  0  0
 21  4  1  0  0  0  0
 22  6  1  0  0  0  0
M  END
