317673308.xyz
 OpenBabel07262113503D
COc1cc(C(=O)Cl)c(cc1S)C(F)F
 22 22  0  0  0  0  0  0  0  0999 V2000
    3.5638    0.1222    2.6339 C   0  0  0  0  0  0  0  0  0  0  0  0
    2.3545    0.1323    1.9006 O   0  0  0  0  0  0  0  0  0  0  0  0
    1.1815    0.0000    2.5503 C   0  0  0  0  0  0  0  0  0  0  0  0
    1.0805   -0.1172    3.9367 C   0  0  0  0  0  0  0  0  0  0  0  0
   -0.1626   -0.2491    4.5759 C   0  0  0  0  0  0  0  0  0  0  0  0
   -0.2425   -0.4304    6.0476 C   0  0  0  0  0  0  0  0  0  0  0  0
   -1.2075   -0.7311    6.6762 O   0  0  0  0  0  0  0  0  0  0  0  0
    1.3212   -0.1646    6.9441 Cl  0  0  0  0  0  0  0  0  0  0  0  0
   -1.3474   -0.2414    3.8004 C   0  0  0  0  0  0  0  0  0  0  0  0
   -1.2378   -0.1014    2.4180 C   0  0  0  0  0  0  0  0  0  0  0  0
   -0.0000    0.0000    1.7655 C   0  0  0  0  0  0  0  0  0  0  0  0
    0.0000    0.0000    0.0000 S   0  0  0  0  0  0  0  0  0  0  0  0
   -2.7339   -0.3013    4.4128 C   0  0  0  0  0  0  0  0  0  0  0  0
   -2.9844    0.8496    5.0951 F   0  0  0  0  0  0  0  0  0  0  0  0
   -3.6761   -0.4034    3.4342 F   0  0  0  0  0  0  0  0  0  0  0  0
    4.3695    0.2342    1.8976 H   0  0  0  0  0  0  0  0  0  0  0  0
    3.6088    0.9574    3.3535 H   0  0  0  0  0  0  0  0  0  0  0  0
    3.6967   -0.8292    3.1764 H   0  0  0  0  0  0  0  0  0  0  0  0
    1.9751   -0.1256    4.5522 H   0  0  0  0  0  0  0  0  0  0  0  0
   -2.1455   -0.0730    1.8166 H   0  0  0  0  0  0  0  0  0  0  0  0
    1.4378    1.7165   -0.5554 Au  0  0  0  0  0  0  0  0  0  0  0  0
   -2.8645   -1.1447    5.1042 H   0  0  0  0  0  0  0  0  0  0  0  0
  1 18  1  0  0  0  0
  1 17  1  0  0  0  0
  2  3  1  0  0  0  0
  2  1  1  0  0  0  0
  3  4  2  0  0  0  0
  4 19  1  0  0  0  0
  4  5  1  0  0  0  0
  5  6  1  0  0  0  0
  6  7  2  0  0  0  0
  6  8  1  0  0  0  0
  9 13  1  0  0  0  0
  9  5  2  0  0  0  0
 10  9  1  0  0  0  0
 11 10  2  0  0  0  0
 11  3  1  0  0  0  0
 12 11  1  0  0  0  0
 13 14  1  0  0  0  0
 13 22  1  0  0  0  0
 15 13  1  0  0  0  0
 16  1  1  0  0  0  0
 20 10  1  0  0  0  0
 21 12  1  0  0  0  0
M  END
