317641982.xyz
 OpenBabel07262113493D
COc1cc(OC(F)F)c(cc1F)S
 21 21  0  0  0  0  0  0  0  0999 V2000
   -0.8850    0.4020    6.7548 C   0  0  0  0  0  0  0  0  0  0  0  0
    0.2640    0.3048    5.9388 O   0  0  0  0  0  0  0  0  0  0  0  0
    0.1035    0.2057    4.6068 C   0  0  0  0  0  0  0  0  0  0  0  0
   -1.1257    0.1825    3.9373 C   0  0  0  0  0  0  0  0  0  0  0  0
   -1.1719    0.0868    2.5451 C   0  0  0  0  0  0  0  0  0  0  0  0
   -2.4146   -0.0127    1.9515 O   0  0  0  0  0  0  0  0  0  0  0  0
   -2.9254    1.1288    1.3820 C   0  0  0  0  0  0  0  0  0  0  0  0
   -3.9001    0.7455    0.5481 F   0  0  0  0  0  0  0  0  0  0  0  0
   -3.4814    1.9098    2.3418 F   0  0  0  0  0  0  0  0  0  0  0  0
   -0.0000    0.0000    1.7732 C   0  0  0  0  0  0  0  0  0  0  0  0
    1.2335    0.0000    2.4552 C   0  0  0  0  0  0  0  0  0  0  0  0
    1.2802    0.1125    3.8323 C   0  0  0  0  0  0  0  0  0  0  0  0
    2.4580    0.1219    4.4629 F   0  0  0  0  0  0  0  0  0  0  0  0
    0.0000    0.0000    0.0000 S   0  0  0  0  0  0  0  0  0  0  0  0
   -1.4794    1.3002    6.5120 H   0  0  0  0  0  0  0  0  0  0  0  0
   -0.5260    0.4758    7.7891 H   0  0  0  0  0  0  0  0  0  0  0  0
   -1.5279   -0.4904    6.6572 H   0  0  0  0  0  0  0  0  0  0  0  0
   -2.0718    0.2421    4.4714 H   0  0  0  0  0  0  0  0  0  0  0  0
   -2.1643    1.7139    0.8413 H   0  0  0  0  0  0  0  0  0  0  0  0
    2.1680   -0.0874    1.8995 H   0  0  0  0  0  0  0  0  0  0  0  0
   -1.3345   -1.8094   -0.5353 Au  0  0  0  0  0  0  0  0  0  0  0  0
  1 16  1  0  0  0  0
  2  1  1  0  0  0  0
  3  2  1  0  0  0  0
  4 18  1  0  0  0  0
  4  3  1  0  0  0  0
  5  4  2  0  0  0  0
  6  5  1  0  0  0  0
  7  6  1  0  0  0  0
  7  9  1  0  0  0  0
  8  7  1  0  0  0  0
 10 11  2  0  0  0  0
 10  5  1  0  0  0  0
 11 12  1  0  0  0  0
 12 13  1  0  0  0  0
 12  3  2  0  0  0  0
 14 10  1  0  0  0  0
 15  1  1  0  0  0  0
 17  1  1  0  0  0  0
 19  7  1  0  0  0  0
 20 11  1  0  0  0  0
 21 14  1  0  0  0  0
M  END
