317679185.xyz
 OpenBabel07262113503D
NC(=O)c1cc(cc(c1C(F)F)S)[N+](=O)[O-]
 22 22  0  0  0  0  0  0  0  0999 V2000
    1.8974    0.8100    6.1074 N   0  0  0  0  0  0  0  0  0  0  0  0
    2.0993    0.0053    5.0280 C   0  0  0  0  0  0  0  0  0  0  0  0
    3.1095   -0.6637    4.8921 O   0  0  0  0  0  0  0  0  0  0  0  0
    0.9434   -0.0202    4.0432 C   0  0  0  0  0  0  0  0  0  0  0  0
   -0.3431   -0.1113    4.5853 C   0  0  0  0  0  0  0  0  0  0  0  0
   -1.4332   -0.1676    3.7271 C   0  0  0  0  0  0  0  0  0  0  0  0
   -1.2852   -0.0947    2.3511 C   0  0  0  0  0  0  0  0  0  0  0  0
   -0.0000    0.0000    1.7881 C   0  0  0  0  0  0  0  0  0  0  0  0
    1.1344    0.0000    2.6407 C   0  0  0  0  0  0  0  0  0  0  0  0
    2.5606    0.0975    2.1215 C   0  0  0  0  0  0  0  0  0  0  0  0
    2.7412   -0.5796    0.9665 F   0  0  0  0  0  0  0  0  0  0  0  0
    2.8595    1.4210    1.8830 F   0  0  0  0  0  0  0  0  0  0  0  0
    0.0000    0.0000    0.0000 S   0  0  0  0  0  0  0  0  0  0  0  0
   -2.7931   -0.2724    4.3028 N   0  0  0  0  0  0  0  0  0  0  0  0
   -2.8834   -0.2865    5.5194 O   0  0  0  0  0  0  0  0  0  0  0  0
   -3.7287   -0.3351    3.5259 O   0  0  0  0  0  0  0  0  0  0  0  0
    1.1304    1.4666    6.1588 H   0  0  0  0  0  0  0  0  0  0  0  0
    2.6372    0.8629    6.7988 H   0  0  0  0  0  0  0  0  0  0  0  0
   -0.5102   -0.1609    5.6597 H   0  0  0  0  0  0  0  0  0  0  0  0
   -2.1670   -0.0986    1.7124 H   0  0  0  0  0  0  0  0  0  0  0  0
    3.2774   -0.2825    2.8564 H   0  0  0  0  0  0  0  0  0  0  0  0
    1.1173    1.9319   -0.5660 Au  0  0  0  0  0  0  0  0  0  0  0  0
  1 17  1  0  0  0  0
  1 18  1  0  0  0  0
  2  1  1  0  0  0  0
  3  2  2  0  0  0  0
  4  5  1  0  0  0  0
  4  2  1  0  0  0  0
  5 19  1  0  0  0  0
  6 14  1  0  0  0  0
  6  5  2  0  0  0  0
  7  6  1  0  0  0  0
  8  7  2  0  0  0  0
  8  9  1  0  0  0  0
  9  4  2  0  0  0  0
 10  9  1  0  0  0  0
 10 21  1  0  0  0  0
 11 10  1  0  0  0  0
 12 10  1  0  0  0  0
 13  8  1  0  0  0  0
 14 15  2  0  0  0  0
 16 14  2  0  0  0  0
 20  7  1  0  0  0  0
 22 13  1  0  0  0  0
M  END
