317636017.xyz
 OpenBabel07262113493D
COc1c(CC)ccc(c1C#N)S
 24 24  0  0  0  0  0  0  0  0999 V2000
    2.6653    1.1966    5.1254 C   0  0  0  0  0  0  0  0  0  0  0  0
    1.9958   -0.0380    4.8913 O   0  0  0  0  0  0  0  0  0  0  0  0
    0.9094    0.0039    4.0644 C   0  0  0  0  0  0  0  0  0  0  0  0
   -0.3723   -0.0039    4.6208 C   0  0  0  0  0  0  0  0  0  0  0  0
   -0.5662   -0.0681    6.1164 C   0  0  0  0  0  0  0  0  0  0  0  0
   -0.3362   -1.4754    6.6836 C   0  0  0  0  0  0  0  0  0  0  0  0
   -1.4560   -0.0117    3.7287 C   0  0  0  0  0  0  0  0  0  0  0  0
   -1.2841   -0.0021    2.3503 C   0  0  0  0  0  0  0  0  0  0  0  0
   -0.0000    0.0000    1.7697 C   0  0  0  0  0  0  0  0  0  0  0  0
    1.1121    0.0000    2.6588 C   0  0  0  0  0  0  0  0  0  0  0  0
    2.4642   -0.0308    2.2055 C   0  0  0  0  0  0  0  0  0  0  0  0
    3.5713   -0.0452    1.8399 N   0  0  0  0  0  0  0  0  0  0  0  0
    0.0000    0.0000    0.0000 S   0  0  0  0  0  0  0  0  0  0  0  0
    3.1079    1.6002    4.2001 H   0  0  0  0  0  0  0  0  0  0  0  0
    3.4697    0.9877    5.8427 H   0  0  0  0  0  0  0  0  0  0  0  0
    1.9766    1.9450    5.5548 H   0  0  0  0  0  0  0  0  0  0  0  0
   -1.5873    0.2699    6.3558 H   0  0  0  0  0  0  0  0  0  0  0  0
    0.1217    0.6358    6.6109 H   0  0  0  0  0  0  0  0  0  0  0  0
   -1.0263   -2.2022    6.2268 H   0  0  0  0  0  0  0  0  0  0  0  0
    0.6924   -1.8076    6.4796 H   0  0  0  0  0  0  0  0  0  0  0  0
   -0.4945   -1.4922    7.7737 H   0  0  0  0  0  0  0  0  0  0  0  0
   -2.4716   -0.0204    4.1340 H   0  0  0  0  0  0  0  0  0  0  0  0
   -2.1575   -0.0027    1.6955 H   0  0  0  0  0  0  0  0  0  0  0  0
    2.2243   -0.0465   -0.6220 Au  0  0  0  0  0  0  0  0  0  0  0  0
  1 16  1  0  0  0  0
  1 15  1  0  0  0  0
  2  1  1  0  0  0  0
  3  4  1  0  0  0  0
  3  2  1  0  0  0  0
  4  5  1  0  0  0  0
  5 17  1  0  0  0  0
  5 18  1  0  0  0  0
  5  6  1  0  0  0  0
  6 21  1  0  0  0  0
  7 22  1  0  0  0  0
  7  4  2  0  0  0  0
  8  7  1  0  0  0  0
  9  8  2  0  0  0  0
  9 10  1  0  0  0  0
 10  3  2  0  0  0  0
 11 10  1  0  0  0  0
 12 11  3  0  0  0  0
 13  9  1  0  0  0  0
 14  1  1  0  0  0  0
 19  6  1  0  0  0  0
 20  6  1  0  0  0  0
 23  8  1  0  0  0  0
 24 13  1  0  0  0  0
M  END
