317695859.xyz
 OpenBabel07262113503D
[O-][N+](=O)c1c(ccc(c1S)C(=O)N)OC(F)(F)F
 23 23  0  0  0  0  0  0  0  0999 V2000
    2.8366   -0.9086    1.1059 O   0  0  0  0  0  0  0  0  0  0  0  0
    2.4965    0.0828    1.7190 N   0  0  0  0  0  0  0  0  0  0  0  0
    3.1000    1.1358    1.7927 O   0  0  0  0  0  0  0  0  0  0  0  0
    1.2263   -0.0000    2.4668 C   0  0  0  0  0  0  0  0  0  0  0  0
    1.3066   -0.0606    3.8591 C   0  0  0  0  0  0  0  0  0  0  0  0
    0.1452   -0.1460    4.6208 C   0  0  0  0  0  0  0  0  0  0  0  0
   -1.0867   -0.1397    3.9639 C   0  0  0  0  0  0  0  0  0  0  0  0
   -1.1737   -0.0625    2.5701 C   0  0  0  0  0  0  0  0  0  0  0  0
    0.0000   -0.0000    1.7837 C   0  0  0  0  0  0  0  0  0  0  0  0
    0.0000    0.0000    0.0000 S   0  0  0  0  0  0  0  0  0  0  0  0
   -2.5536    0.0072    1.9542 C   0  0  0  0  0  0  0  0  0  0  0  0
   -2.9952    1.0258    1.4462 O   0  0  0  0  0  0  0  0  0  0  0  0
   -3.2807   -1.1311    2.0803 N   0  0  0  0  0  0  0  0  0  0  0  0
    2.5682   -0.1043    4.4236 O   0  0  0  0  0  0  0  0  0  0  0  0
    2.9571    0.9075    5.2473 C   0  0  0  0  0  0  0  0  0  0  0  0
    2.7079    2.1056    4.7235 F   0  0  0  0  0  0  0  0  0  0  0  0
    2.3232    0.8493    6.4331 F   0  0  0  0  0  0  0  0  0  0  0  0
    4.2536    0.7744    5.4598 F   0  0  0  0  0  0  0  0  0  0  0  0
    0.2124   -0.2192    5.7055 H   0  0  0  0  0  0  0  0  0  0  0  0
   -2.0056   -0.1989    4.5512 H   0  0  0  0  0  0  0  0  0  0  0  0
   -1.0620    2.0253   -0.3770 Au  0  0  0  0  0  0  0  0  0  0  0  0
   -4.2047   -1.1601    1.6624 H   0  0  0  0  0  0  0  0  0  0  0  0
   -2.8550   -1.9937    2.3937 H   0  0  0  0  0  0  0  0  0  0  0  0
  1  2  2  0  0  0  0
  2  3  2  0  0  0  0
  2  4  1  0  0  0  0
  4  5  1  0  0  0  0
  5 14  1  0  0  0  0
  5  6  2  0  0  0  0
  6 19  1  0  0  0  0
  7 20  1  0  0  0  0
  7  6  1  0  0  0  0
  8  7  2  0  0  0  0
  9  4  2  0  0  0  0
  9  8  1  0  0  0  0
 10  9  1  0  0  0  0
 11 13  1  0  0  0  0
 11  8  1  0  0  0  0
 12 11  2  0  0  0  0
 13 23  1  0  0  0  0
 14 15  1  0  0  0  0
 15 18  1  0  0  0  0
 15 17  1  0  0  0  0
 16 15  1  0  0  0  0
 21 10  1  0  0  0  0
 22 13  1  0  0  0  0
M  END
