31768066.xyz
 OpenBabel07262113503D
Clc1cccc(c1)N1C(=NC(=O)/C(=C/c2cc3CCCN4c3c(c2)CCC4)/C1=O)S
 50 54  0  0  0  0  0  0  0  0999 V2000
   -4.8792    2.7055   -0.1558 Cl  0  0  0  0  0  0  0  0  0  0  0  0
   -4.1529    1.1935    0.3306 C   0  0  0  0  0  0  0  0  0  0  0  0
   -4.7177   -0.0122   -0.0951 C   0  0  0  0  0  0  0  0  0  0  0  0
   -4.1324   -1.2171    0.3003 C   0  0  0  0  0  0  0  0  0  0  0  0
   -2.9953   -1.2214    1.1085 C   0  0  0  0  0  0  0  0  0  0  0  0
   -2.4405   -0.0061    1.5164 C   0  0  0  0  0  0  0  0  0  0  0  0
   -3.0160    1.2089    1.1384 C   0  0  0  0  0  0  0  0  0  0  0  0
   -1.2623    0.0010    2.3401 N   0  0  0  0  0  0  0  0  0  0  0  0
   -0.0000    0.0000    1.7744 C   0  0  0  0  0  0  0  0  0  0  0  0
    1.1033   -0.0000    2.4431 N   0  0  0  0  0  0  0  0  0  0  0  0
    1.1004    0.0025    3.8382 C   0  0  0  0  0  0  0  0  0  0  0  0
    2.1578   -0.0041    4.4452 O   0  0  0  0  0  0  0  0  0  0  0  0
   -0.2281    0.0160    4.5434 C   0  0  0  0  0  0  0  0  0  0  0  0
   -0.1422    0.0327    5.9233 C   0  0  0  0  0  0  0  0  0  0  0  0
   -1.0237    0.0543    7.0538 C   0  0  0  0  0  0  0  0  0  0  0  0
   -2.4422    0.0614    7.0472 C   0  0  0  0  0  0  0  0  0  0  0  0
   -3.1817    0.0726    8.2162 C   0  0  0  0  0  0  0  0  0  0  0  0
   -4.6909    0.0580    8.1817 C   0  0  0  0  0  0  0  0  0  0  0  0
   -5.2475    0.8433    9.3666 C   0  0  0  0  0  0  0  0  0  0  0  0
   -4.7010    0.2681   10.6651 C   0  0  0  0  0  0  0  0  0  0  0  0
   -3.2497    0.1292   10.6472 N   0  0  0  0  0  0  0  0  0  0  0  0
   -2.5241    0.1048    9.4827 C   0  0  0  0  0  0  0  0  0  0  0  0
   -1.0974    0.1107    9.5176 C   0  0  0  0  0  0  0  0  0  0  0  0
   -0.3949    0.0726    8.3285 C   0  0  0  0  0  0  0  0  0  0  0  0
   -0.3987    0.1526   10.8547 C   0  0  0  0  0  0  0  0  0  0  0  0
   -1.2334   -0.5843   11.8994 C   0  0  0  0  0  0  0  0  0  0  0  0
   -2.6282    0.0215   11.9613 C   0  0  0  0  0  0  0  0  0  0  0  0
   -1.4559    0.0108    3.7512 C   0  0  0  0  0  0  0  0  0  0  0  0
   -2.6066    0.0132    4.1569 O   0  0  0  0  0  0  0  0  0  0  0  0
    0.0000    0.0000    0.0000 S   0  0  0  0  0  0  0  0  0  0  0  0
   -5.6059    0.0015   -0.7280 H   0  0  0  0  0  0  0  0  0  0  0  0
   -4.5709   -2.1618   -0.0278 H   0  0  0  0  0  0  0  0  0  0  0  0
   -2.5281   -2.1554    1.4227 H   0  0  0  0  0  0  0  0  0  0  0  0
   -2.5771    2.1505    1.4669 H   0  0  0  0  0  0  0  0  0  0  0  0
    0.9140    0.0305    6.2176 H   0  0  0  0  0  0  0  0  0  0  0  0
   -2.9547    0.0483    6.0882 H   0  0  0  0  0  0  0  0  0  0  0  0
   -5.0601   -0.9836    8.2321 H   0  0  0  0  0  0  0  0  0  0  0  0
   -5.0472    0.4684    7.2255 H   0  0  0  0  0  0  0  0  0  0  0  0
   -6.3475    0.8106    9.3929 H   0  0  0  0  0  0  0  0  0  0  0  0
   -4.9525    1.9026    9.2792 H   0  0  0  0  0  0  0  0  0  0  0  0
   -5.1665   -0.7171   10.8696 H   0  0  0  0  0  0  0  0  0  0  0  0
   -4.9689    0.9216   11.5135 H   0  0  0  0  0  0  0  0  0  0  0  0
    0.6979    0.0659    8.3708 H   0  0  0  0  0  0  0  0  0  0  0  0
    0.6080   -0.2834   10.7691 H   0  0  0  0  0  0  0  0  0  0  0  0
   -0.2594    1.2014   11.1775 H   0  0  0  0  0  0  0  0  0  0  0  0
   -1.3060   -1.6511   11.6286 H   0  0  0  0  0  0  0  0  0  0  0  0
   -0.7720   -0.5296   12.8972 H   0  0  0  0  0  0  0  0  0  0  0  0
   -3.2833   -0.5987   12.5973 H   0  0  0  0  0  0  0  0  0  0  0  0
   -2.5864    1.0220   12.4372 H   0  0  0  0  0  0  0  0  0  0  0  0
    2.3105    0.0109   -0.2411 Au  0  0  0  0  0  0  0  0  0  0  0  0
  1  2  1  0  0  0  0
  2  7  2  0  0  0  0
  3  4  2  0  0  0  0
  3  2  1  0  0  0  0
  4  5  1  0  0  0  0
  5 33  1  0  0  0  0
  5  6  2  0  0  0  0
  6  8  1  0  0  0  0
  7 34  1  0  0  0  0
  7  6  1  0  0  0  0
  8 28  1  0  0  0  0
  9  8  1  0  0  0  0
  9 10  2  0  0  0  0
 10 11  2  0  0  0  0
 11 12  2  0  0  0  0
 11 13  1  0  0  0  0
 13 14  2  0  0  0  0
 14 35  1  0  0  0  0
 14 15  1  0  0  0  0
 15 24  1  0  0  0  0
 16 15  2  0  0  0  0
 16 17  1  0  0  0  0
 17 22  2  0  0  0  0
 18 17  1  0  0  0  0
 18 37  1  0  0  0  0
 18 19  1  0  0  0  0
 19 39  1  0  0  0  0
 19 20  1  0  0  0  0
 20 41  1  0  0  0  0
 20 42  1  0  0  0  0
 21 20  1  0  0  0  0
 21 27  1  0  0  0  0
 22 23  1  0  0  0  0
 22 21  1  0  0  0  0
 23 25  1  0  0  0  0
 24 43  1  0  0  0  0
 24 23  2  0  0  0  0
 25 45  1  0  0  0  0
 25 26  1  0  0  0  0
 26 27  1  0  0  0  0
 26 47  1  0  0  0  0
 27 49  1  0  0  0  0
 27 48  1  0  0  0  0
 28 29  2  0  0  0  0
 28 13  1  0  0  0  0
 30  9  1  0  0  0  0
 31  3  1  0  0  0  0
 32  4  1  0  0  0  0
 36 16  1  0  0  0  0
 38 18  1  0  0  0  0
 40 19  1  0  0  0  0
 44 25  1  0  0  0  0
 46 26  1  0  0  0  0
 50 30  1  0  0  0  0
M  END
