317692535.xyz
 OpenBabel07262113503D
CC(=O)c1ccc(c(c1C(F)(F)F)C)S
 24 24  0  0  0  0  0  0  0  0999 V2000
    0.2100    1.6600    6.6815 C   0  0  0  0  0  0  0  0  0  0  0  0
   -0.3967    0.4149    6.0659 C   0  0  0  0  0  0  0  0  0  0  0  0
   -1.1629   -0.2956    6.6751 O   0  0  0  0  0  0  0  0  0  0  0  0
   -0.1713    0.1921    4.5815 C   0  0  0  0  0  0  0  0  0  0  0  0
   -1.3328    0.1765    3.7993 C   0  0  0  0  0  0  0  0  0  0  0  0
   -1.2493    0.0652    2.4187 C   0  0  0  0  0  0  0  0  0  0  0  0
   -0.0000    0.0000    1.7822 C   0  0  0  0  0  0  0  0  0  0  0  0
    1.1956    0.0000    2.5453 C   0  0  0  0  0  0  0  0  0  0  0  0
    1.0810    0.0441    3.9529 C   0  0  0  0  0  0  0  0  0  0  0  0
    2.3298   -0.1284    4.7965 C   0  0  0  0  0  0  0  0  0  0  0  0
    2.0418   -0.4297    6.0757 F   0  0  0  0  0  0  0  0  0  0  0  0
    3.1097   -1.1242    4.3445 F   0  0  0  0  0  0  0  0  0  0  0  0
    3.0907    0.9892    4.8204 F   0  0  0  0  0  0  0  0  0  0  0  0
    2.5273   -0.0620    1.8468 C   0  0  0  0  0  0  0  0  0  0  0  0
    0.0000    0.0000    0.0000 S   0  0  0  0  0  0  0  0  0  0  0  0
    0.3187    1.5204    7.7655 H   0  0  0  0  0  0  0  0  0  0  0  0
   -0.5050    2.4838    6.5112 H   0  0  0  0  0  0  0  0  0  0  0  0
    1.1648    1.9547    6.2294 H   0  0  0  0  0  0  0  0  0  0  0  0
   -2.3027    0.2488    4.2947 H   0  0  0  0  0  0  0  0  0  0  0  0
   -2.1534    0.0352    1.8083 H   0  0  0  0  0  0  0  0  0  0  0  0
    2.4651    0.4804    0.8945 H   0  0  0  0  0  0  0  0  0  0  0  0
    2.7913   -1.1054    1.6000 H   0  0  0  0  0  0  0  0  0  0  0  0
    3.3399    0.3586    2.4479 H   0  0  0  0  0  0  0  0  0  0  0  0
    0.6799   -2.1437   -0.5175 Au  0  0  0  0  0  0  0  0  0  0  0  0
  1 16  1  0  0  0  0
  2  3  2  0  0  0  0
  2  1  1  0  0  0  0
  4  2  1  0  0  0  0
  5 19  1  0  0  0  0
  5  4  2  0  0  0  0
  6  5  1  0  0  0  0
  7  6  2  0  0  0  0
  7  8  1  0  0  0  0
  8  9  2  0  0  0  0
  9  4  1  0  0  0  0
  9 10  1  0  0  0  0
 10 13  1  0  0  0  0
 10 11  1  0  0  0  0
 12 10  1  0  0  0  0
 14 23  1  0  0  0  0
 14  8  1  0  0  0  0
 15  7  1  0  0  0  0
 17  1  1  0  0  0  0
 18  1  1  0  0  0  0
 20  6  1  0  0  0  0
 21 14  1  0  0  0  0
 22 14  1  0  0  0  0
 24 15  1  0  0  0  0
M  END
