317684340.xyz
 OpenBabel07262113503D
COc1cc(cc(c1S)C(=O)C)C(F)(F)F
 25 25  0  0  0  0  0  0  0  0999 V2000
    3.6310   -0.0642    2.3185 C   0  0  0  0  0  0  0  0  0  0  0  0
    2.3580   -0.0868    1.7066 O   0  0  0  0  0  0  0  0  0  0  0  0
    1.2481   -0.0000    2.4671 C   0  0  0  0  0  0  0  0  0  0  0  0
    1.2879    0.0483    3.8618 C   0  0  0  0  0  0  0  0  0  0  0  0
    0.0948    0.0826    4.5897 C   0  0  0  0  0  0  0  0  0  0  0  0
   -1.1300    0.0574    3.9356 C   0  0  0  0  0  0  0  0  0  0  0  0
   -1.1940    0.0304    2.5332 C   0  0  0  0  0  0  0  0  0  0  0  0
    0.0000    0.0000    1.7764 C   0  0  0  0  0  0  0  0  0  0  0  0
    0.0000    0.0000    0.0000 S   0  0  0  0  0  0  0  0  0  0  0  0
   -2.6098    0.0217    1.9835 C   0  0  0  0  0  0  0  0  0  0  0  0
   -3.4803   -0.5078    2.6438 O   0  0  0  0  0  0  0  0  0  0  0  0
   -2.9543    0.7342    0.6947 C   0  0  0  0  0  0  0  0  0  0  0  0
    0.1544    0.1973    6.0913 C   0  0  0  0  0  0  0  0  0  0  0  0
   -0.9381   -0.3102    6.6796 F   0  0  0  0  0  0  0  0  0  0  0  0
    1.2259   -0.4453    6.5953 F   0  0  0  0  0  0  0  0  0  0  0  0
    0.2551    1.4832    6.4813 F   0  0  0  0  0  0  0  0  0  0  0  0
    3.7712   -0.9223    2.9982 H   0  0  0  0  0  0  0  0  0  0  0  0
    3.7917    0.8714    2.8811 H   0  0  0  0  0  0  0  0  0  0  0  0
    4.3634   -0.1260    1.5037 H   0  0  0  0  0  0  0  0  0  0  0  0
    2.2367    0.0486    4.3945 H   0  0  0  0  0  0  0  0  0  0  0  0
   -2.0647    0.0495    4.4948 H   0  0  0  0  0  0  0  0  0  0  0  0
    1.1631   -1.9254   -0.5201 Au  0  0  0  0  0  0  0  0  0  0  0  0
   -4.0168    1.0110    0.7376 H   0  0  0  0  0  0  0  0  0  0  0  0
   -2.7968    0.0545   -0.1559 H   0  0  0  0  0  0  0  0  0  0  0  0
   -2.3286    1.6215    0.5219 H   0  0  0  0  0  0  0  0  0  0  0  0
  1 18  1  0  0  0  0
  1 17  1  0  0  0  0
  2  1  1  0  0  0  0
  2  3  1  0  0  0  0
  3  4  1  0  0  0  0
  4 20  1  0  0  0  0
  4  5  2  0  0  0  0
  5 13  1  0  0  0  0
  6 21  1  0  0  0  0
  6  5  1  0  0  0  0
  7  6  2  0  0  0  0
  8  3  2  0  0  0  0
  8  7  1  0  0  0  0
  9  8  1  0  0  0  0
 10  7  1  0  0  0  0
 10 11  2  0  0  0  0
 12 23  1  0  0  0  0
 12 10  1  0  0  0  0
 13 16  1  0  0  0  0
 13 15  1  0  0  0  0
 13 14  1  0  0  0  0
 19  1  1  0  0  0  0
 22  9  1  0  0  0  0
 24 12  1  0  0  0  0
 25 12  1  0  0  0  0
M  END
