317674360.xyz
 OpenBabel07262113503D
COc1cc(S)cc(c1C)C(=O)Cl
 22 22  0  0  0  0  0  0  0  0999 V2000
   -3.5925   -0.1719    3.9884 C   0  0  0  0  0  0  0  0  0  0  0  0
   -2.3367   -0.1997    4.6307 O   0  0  0  0  0  0  0  0  0  0  0  0
   -1.2066   -0.1435    3.8843 C   0  0  0  0  0  0  0  0  0  0  0  0
   -1.2114   -0.0813    2.4892 C   0  0  0  0  0  0  0  0  0  0  0  0
    0.0000   -0.0000    1.7823 C   0  0  0  0  0  0  0  0  0  0  0  0
    0.0000    0.0000    0.0000 S   0  0  0  0  0  0  0  0  0  0  0  0
    1.2054   -0.0000    2.4838 C   0  0  0  0  0  0  0  0  0  0  0  0
    1.2043   -0.1031    3.8869 C   0  0  0  0  0  0  0  0  0  0  0  0
    0.0057   -0.1460    4.6215 C   0  0  0  0  0  0  0  0  0  0  0  0
   -0.0846   -0.1483    6.1229 C   0  0  0  0  0  0  0  0  0  0  0  0
    2.5687   -0.1400    4.4907 C   0  0  0  0  0  0  0  0  0  0  0  0
    3.4982    0.5178    4.1544 O   0  0  0  0  0  0  0  0  0  0  0  0
    2.7952   -1.4379    5.7402 Cl  0  0  0  0  0  0  0  0  0  0  0  0
   -3.7272   -1.0399    3.3195 H   0  0  0  0  0  0  0  0  0  0  0  0
   -3.7302    0.7542    3.4027 H   0  0  0  0  0  0  0  0  0  0  0  0
   -4.3490   -0.2109    4.7827 H   0  0  0  0  0  0  0  0  0  0  0  0
   -2.1424   -0.0857    1.9257 H   0  0  0  0  0  0  0  0  0  0  0  0
   -0.2111    2.2370   -0.5089 Au  0  0  0  0  0  0  0  0  0  0  0  0
    2.1513    0.0664    1.9470 H   0  0  0  0  0  0  0  0  0  0  0  0
   -0.9266    0.4812    6.4424 H   0  0  0  0  0  0  0  0  0  0  0  0
    0.8346    0.2077    6.5996 H   0  0  0  0  0  0  0  0  0  0  0  0
   -0.2843   -1.1643    6.5018 H   0  0  0  0  0  0  0  0  0  0  0  0
  1  2  1  0  0  0  0
  1 16  1  0  0  0  0
  3  9  1  0  0  0  0
  3  2  1  0  0  0  0
  4  3  2  0  0  0  0
  5  7  2  0  0  0  0
  5  4  1  0  0  0  0
  6  5  1  0  0  0  0
  7  8  1  0  0  0  0
  8 11  1  0  0  0  0
  8  9  2  0  0  0  0
  9 10  1  0  0  0  0
 10 20  1  0  0  0  0
 10 22  1  0  0  0  0
 10 21  1  0  0  0  0
 11 13  1  0  0  0  0
 12 11  2  0  0  0  0
 14  1  1  0  0  0  0
 15  1  1  0  0  0  0
 17  4  1  0  0  0  0
 18  6  1  0  0  0  0
 19  7  1  0  0  0  0
M  END
