317657372.xyz
 OpenBabel07262113503D
N#CCc1c(ccc(c1C)S)OC(F)F
 24 24  0  0  0  0  0  0  0  0999 V2000
    3.6186    2.2863    4.5991 N   0  0  0  0  0  0  0  0  0  0  0  0
    3.0619    1.2774    4.7162 C   0  0  0  0  0  0  0  0  0  0  0  0
    2.3476    0.0014    4.8222 C   0  0  0  0  0  0  0  0  0  0  0  0
    1.1059   -0.0426    3.9467 C   0  0  0  0  0  0  0  0  0  0  0  0
   -0.1561   -0.1085    4.5639 C   0  0  0  0  0  0  0  0  0  0  0  0
   -1.3341   -0.1126    3.8122 C   0  0  0  0  0  0  0  0  0  0  0  0
   -1.2444   -0.0529    2.4259 C   0  0  0  0  0  0  0  0  0  0  0  0
   -0.0000   -0.0000    1.7804 C   0  0  0  0  0  0  0  0  0  0  0  0
    1.1974   -0.0000    2.5420 C   0  0  0  0  0  0  0  0  0  0  0  0
    2.5340    0.0857    1.8616 C   0  0  0  0  0  0  0  0  0  0  0  0
    0.0000    0.0000    0.0000 S   0  0  0  0  0  0  0  0  0  0  0  0
   -0.1654   -0.1384    5.9416 O   0  0  0  0  0  0  0  0  0  0  0  0
   -1.1908   -0.7693    6.5964 C   0  0  0  0  0  0  0  0  0  0  0  0
   -0.7555   -1.0408    7.8303 F   0  0  0  0  0  0  0  0  0  0  0  0
   -2.2638    0.0494    6.7062 F   0  0  0  0  0  0  0  0  0  0  0  0
    2.0690   -0.1541    5.8728 H   0  0  0  0  0  0  0  0  0  0  0  0
    3.0478   -0.8057    4.5506 H   0  0  0  0  0  0  0  0  0  0  0  0
   -2.3068   -0.1133    4.3030 H   0  0  0  0  0  0  0  0  0  0  0  0
   -2.1525   -0.0285    1.8216 H   0  0  0  0  0  0  0  0  0  0  0  0
    2.8112    1.1411    1.6900 H   0  0  0  0  0  0  0  0  0  0  0  0
    2.4955   -0.4010    0.8789 H   0  0  0  0  0  0  0  0  0  0  0  0
    3.3393   -0.3660    2.4552 H   0  0  0  0  0  0  0  0  0  0  0  0
    0.6197    2.1645   -0.5116 Au  0  0  0  0  0  0  0  0  0  0  0  0
   -1.5080   -1.6969    6.0864 H   0  0  0  0  0  0  0  0  0  0  0  0
  1  2  3  0  0  0  0
  2  3  1  0  0  0  0
  3 16  1  0  0  0  0
  4  5  1  0  0  0  0
  4  3  1  0  0  0  0
  5 12  1  0  0  0  0
  6 18  1  0  0  0  0
  6  5  2  0  0  0  0
  7  6  1  0  0  0  0
  8  7  2  0  0  0  0
  8  9  1  0  0  0  0
  9  4  2  0  0  0  0
 10 22  1  0  0  0  0
 10  9  1  0  0  0  0
 11  8  1  0  0  0  0
 12 13  1  0  0  0  0
 13 15  1  0  0  0  0
 13 14  1  0  0  0  0
 17  3  1  0  0  0  0
 19  7  1  0  0  0  0
 20 10  1  0  0  0  0
 21 10  1  0  0  0  0
 23 11  1  0  0  0  0
 24 13  1  0  0  0  0
M  END
