317667679.xyz
 OpenBabel07262113503D
FC(c1c(S)c(ccc1C(=O)N)C(F)(F)F)F
 23 23  0  0  0  0  0  0  0  0999 V2000
    2.7065   -1.0059    0.9801 F   0  0  0  0  0  0  0  0  0  0  0  0
    2.5620    0.0577    1.8154 C   0  0  0  0  0  0  0  0  0  0  0  0
    1.2155    0.0000    2.5236 C   0  0  0  0  0  0  0  0  0  0  0  0
    0.0000   -0.0000    1.7950 C   0  0  0  0  0  0  0  0  0  0  0  0
    0.0000    0.0000    0.0000 S   0  0  0  0  0  0  0  0  0  0  0  0
   -1.2259   -0.0851    2.4963 C   0  0  0  0  0  0  0  0  0  0  0  0
   -1.2339   -0.1706    3.8893 C   0  0  0  0  0  0  0  0  0  0  0  0
   -0.0392   -0.1823    4.5988 C   0  0  0  0  0  0  0  0  0  0  0  0
    1.1879   -0.0963    3.9298 C   0  0  0  0  0  0  0  0  0  0  0  0
    2.4453   -0.0500    4.7729 C   0  0  0  0  0  0  0  0  0  0  0  0
    3.3431    0.7510    4.5794 O   0  0  0  0  0  0  0  0  0  0  0  0
    2.4711   -0.9481    5.7993 N   0  0  0  0  0  0  0  0  0  0  0  0
   -2.5707   -0.0834    1.7839 C   0  0  0  0  0  0  0  0  0  0  0  0
   -2.7064   -1.1206    0.9503 F   0  0  0  0  0  0  0  0  0  0  0  0
   -3.5826   -0.1678    2.6729 F   0  0  0  0  0  0  0  0  0  0  0  0
   -2.7740    1.0454    1.0865 F   0  0  0  0  0  0  0  0  0  0  0  0
    2.6783    1.1969    1.0780 F   0  0  0  0  0  0  0  0  0  0  0  0
    3.3947    0.0509    2.5260 H   0  0  0  0  0  0  0  0  0  0  0  0
    0.0283    2.2649   -0.4288 Au  0  0  0  0  0  0  0  0  0  0  0  0
   -2.1837   -0.2238    4.4196 H   0  0  0  0  0  0  0  0  0  0  0  0
   -0.0583   -0.2314    5.6887 H   0  0  0  0  0  0  0  0  0  0  0  0
    1.8175   -1.7176    5.8547 H   0  0  0  0  0  0  0  0  0  0  0  0
    3.2991   -0.9664    6.3843 H   0  0  0  0  0  0  0  0  0  0  0  0
  1  2  1  0  0  0  0
  2  3  1  0  0  0  0
  2 18  1  0  0  0  0
  3  9  2  0  0  0  0
  4  6  2  0  0  0  0
  4  3  1  0  0  0  0
  5  4  1  0  0  0  0
  6  7  1  0  0  0  0
  7 20  1  0  0  0  0
  7  8  2  0  0  0  0
  8 21  1  0  0  0  0
  9  8  1  0  0  0  0
  9 10  1  0  0  0  0
 10 12  1  0  0  0  0
 11 10  2  0  0  0  0
 12 22  1  0  0  0  0
 12 23  1  0  0  0  0
 13  6  1  0  0  0  0
 13 15  1  0  0  0  0
 14 13  1  0  0  0  0
 16 13  1  0  0  0  0
 17  2  1  0  0  0  0
 19  5  1  0  0  0  0
M  END
