317637115.xyz
 OpenBabel07262113493D
FC(Oc1cc(S)cc(c1F)C(=O)Cl)F
 19 19  0  0  0  0  0  0  0  0999 V2000
   -4.1128   -0.0279    3.3119 F   0  0  0  0  0  0  0  0  0  0  0  0
   -3.4452   -0.8779    4.1302 C   0  0  0  0  0  0  0  0  0  0  0  0
   -2.3320   -0.2672    4.6531 O   0  0  0  0  0  0  0  0  0  0  0  0
   -1.2076   -0.1722    3.8792 C   0  0  0  0  0  0  0  0  0  0  0  0
   -1.2148   -0.0799    2.4900 C   0  0  0  0  0  0  0  0  0  0  0  0
    0.0000    0.0000    1.7833 C   0  0  0  0  0  0  0  0  0  0  0  0
    0.0000    0.0000    0.0000 S   0  0  0  0  0  0  0  0  0  0  0  0
    1.2057    0.0000    2.4854 C   0  0  0  0  0  0  0  0  0  0  0  0
    1.2285   -0.0552    3.8919 C   0  0  0  0  0  0  0  0  0  0  0  0
    0.0129   -0.1583    4.5814 C   0  0  0  0  0  0  0  0  0  0  0  0
   -0.0440   -0.2787    5.8985 F   0  0  0  0  0  0  0  0  0  0  0  0
    2.5834   -0.0341    4.5181 C   0  0  0  0  0  0  0  0  0  0  0  0
    3.5800   -0.3688    3.9590 O   0  0  0  0  0  0  0  0  0  0  0  0
    2.6624    0.6450    6.1715 Cl  0  0  0  0  0  0  0  0  0  0  0  0
   -4.2442   -1.1741    5.1540 F   0  0  0  0  0  0  0  0  0  0  0  0
   -3.1927   -1.7888    3.5568 H   0  0  0  0  0  0  0  0  0  0  0  0
   -2.1575   -0.0490    1.9453 H   0  0  0  0  0  0  0  0  0  0  0  0
   -0.2677    2.2317   -0.5033 Au  0  0  0  0  0  0  0  0  0  0  0  0
    2.1535    0.0586    1.9508 H   0  0  0  0  0  0  0  0  0  0  0  0
  1  2  1  0  0  0  0
  2  3  1  0  0  0  0
  2 15  1  0  0  0  0
  4 10  1  0  0  0  0
  4  3  1  0  0  0  0
  5  4  2  0  0  0  0
  6  8  2  0  0  0  0
  6  5  1  0  0  0  0
  7  6  1  0  0  0  0
  8  9  1  0  0  0  0
  9 12  1  0  0  0  0
  9 10  2  0  0  0  0
 10 11  1  0  0  0  0
 12 14  1  0  0  0  0
 13 12  2  0  0  0  0
 16  2  1  0  0  0  0
 17  5  1  0  0  0  0
 18  7  1  0  0  0  0
 19  8  1  0  0  0  0
M  END
