317642653.xyz
 OpenBabel07262113493D
N#Cc1cc(S)c(cc1OC(F)F)C(=O)Cl
 20 20  0  0  0  0  0  0  0  0999 V2000
    3.7513   -0.1487    4.8659 N   0  0  0  0  0  0  0  0  0  0  0  0
    2.6871   -0.1433    4.4043 C   0  0  0  0  0  0  0  0  0  0  0  0
    1.3885   -0.1360    3.7992 C   0  0  0  0  0  0  0  0  0  0  0  0
    1.2545   -0.0000    2.4124 C   0  0  0  0  0  0  0  0  0  0  0  0
    0.0000    0.0000    1.7821 C   0  0  0  0  0  0  0  0  0  0  0  0
    0.0000    0.0000    0.0000 S   0  0  0  0  0  0  0  0  0  0  0  0
   -1.1513   -0.1434    2.5981 C   0  0  0  0  0  0  0  0  0  0  0  0
   -1.0241   -0.2755    3.9884 C   0  0  0  0  0  0  0  0  0  0  0  0
    0.2308   -0.2761    4.5941 C   0  0  0  0  0  0  0  0  0  0  0  0
    0.4265   -0.3894    5.9366 O   0  0  0  0  0  0  0  0  0  0  0  0
   -0.5422   -0.9799    6.7209 C   0  0  0  0  0  0  0  0  0  0  0  0
    0.0209   -1.2372    7.8968 F   0  0  0  0  0  0  0  0  0  0  0  0
   -1.5708   -0.1236    6.9204 F   0  0  0  0  0  0  0  0  0  0  0  0
   -2.5252   -0.0917    2.0142 C   0  0  0  0  0  0  0  0  0  0  0  0
   -2.8943    0.5798    1.1089 O   0  0  0  0  0  0  0  0  0  0  0  0
   -3.6942   -1.2046    2.8420 Cl  0  0  0  0  0  0  0  0  0  0  0  0
    2.1497    0.1018    1.7988 H   0  0  0  0  0  0  0  0  0  0  0  0
   -0.7002    2.1391   -0.5117 Au  0  0  0  0  0  0  0  0  0  0  0  0
   -1.9243   -0.3558    4.5933 H   0  0  0  0  0  0  0  0  0  0  0  0
   -0.9372   -1.9061    6.2653 H   0  0  0  0  0  0  0  0  0  0  0  0
  2  1  3  0  0  0  0
  3  2  1  0  0  0  0
  3  9  2  0  0  0  0
  4  3  1  0  0  0  0
  5  4  2  0  0  0  0
  5  7  1  0  0  0  0
  6  5  1  0  0  0  0
  7  8  2  0  0  0  0
  8 19  1  0  0  0  0
  8  9  1  0  0  0  0
  9 10  1  0  0  0  0
 10 11  1  0  0  0  0
 11 13  1  0  0  0  0
 11 12  1  0  0  0  0
 14  7  1  0  0  0  0
 14 16  1  0  0  0  0
 15 14  2  0  0  0  0
 17  4  1  0  0  0  0
 18  6  1  0  0  0  0
 20 11  1  0  0  0  0
M  END
