317647789.xyz
 OpenBabel07262113493D
CCOc1ccc(c(c1OC(F)(F)F)S)C#N
 25 25  0  0  0  0  0  0  0  0999 V2000
    3.0726   -1.4002    6.0977 C   0  0  0  0  0  0  0  0  0  0  0  0
    3.1207    0.0039    5.5177 C   0  0  0  0  0  0  0  0  0  0  0  0
    2.7662    0.0303    4.1357 O   0  0  0  0  0  0  0  0  0  0  0  0
    1.4836    0.0035    3.7466 C   0  0  0  0  0  0  0  0  0  0  0  0
    0.3692    0.0025    4.6028 C   0  0  0  0  0  0  0  0  0  0  0  0
   -0.9037   -0.0030    4.0533 C   0  0  0  0  0  0  0  0  0  0  0  0
   -1.1161   -0.0077    2.6613 C   0  0  0  0  0  0  0  0  0  0  0  0
    0.0000    0.0000    1.7680 C   0  0  0  0  0  0  0  0  0  0  0  0
    1.2770    0.0000    2.3553 C   0  0  0  0  0  0  0  0  0  0  0  0
    2.3773   -0.0697    1.5182 O   0  0  0  0  0  0  0  0  0  0  0  0
    3.2174    0.9889    1.3548 C   0  0  0  0  0  0  0  0  0  0  0  0
    3.3719    1.2246    0.0526 F   0  0  0  0  0  0  0  0  0  0  0  0
    2.7569    2.1006    1.9347 F   0  0  0  0  0  0  0  0  0  0  0  0
    4.4225    0.7188    1.8587 F   0  0  0  0  0  0  0  0  0  0  0  0
    0.0000    0.0000    0.0000 S   0  0  0  0  0  0  0  0  0  0  0  0
   -2.4707   -0.0134    2.2149 C   0  0  0  0  0  0  0  0  0  0  0  0
   -3.5938   -0.0145    1.8992 N   0  0  0  0  0  0  0  0  0  0  0  0
    3.7220   -2.0738    5.5188 H   0  0  0  0  0  0  0  0  0  0  0  0
    3.4262   -1.3876    7.1407 H   0  0  0  0  0  0  0  0  0  0  0  0
    2.0533   -1.8143    6.0871 H   0  0  0  0  0  0  0  0  0  0  0  0
    2.4850    0.7061    6.0835 H   0  0  0  0  0  0  0  0  0  0  0  0
    4.1466    0.3977    5.5410 H   0  0  0  0  0  0  0  0  0  0  0  0
    0.4915    0.0032    5.6840 H   0  0  0  0  0  0  0  0  0  0  0  0
   -1.7740   -0.0060    4.7113 H   0  0  0  0  0  0  0  0  0  0  0  0
   -2.2373    0.0935   -0.5769 Au  0  0  0  0  0  0  0  0  0  0  0  0
  1 19  1  0  0  0  0
  2 22  1  0  0  0  0
  2 21  1  0  0  0  0
  2  1  1  0  0  0  0
  3  2  1  0  0  0  0
  4  3  1  0  0  0  0
  4  5  2  0  0  0  0
  5 23  1  0  0  0  0
  6  5  1  0  0  0  0
  6 24  1  0  0  0  0
  7  6  2  0  0  0  0
  8  9  2  0  0  0  0
  8  7  1  0  0  0  0
  9  4  1  0  0  0  0
 10  9  1  0  0  0  0
 11 10  1  0  0  0  0
 11 14  1  0  0  0  0
 11 13  1  0  0  0  0
 12 11  1  0  0  0  0
 15  8  1  0  0  0  0
 16  7  1  0  0  0  0
 17 16  3  0  0  0  0
 18  1  1  0  0  0  0
 20  1  1  0  0  0  0
 25 15  1  0  0  0  0
M  END
