317696883.xyz
 OpenBabel07262113503D
[O-][N+](=O)c1cc(S)c(cc1OC(F)(F)F)C(=O)N
 23 23  0  0  0  0  0  0  0  0999 V2000
   -3.6241   -0.1092    3.7421 O   0  0  0  0  0  0  0  0  0  0  0  0
   -2.7112    0.4128    4.3581 N   0  0  0  0  0  0  0  0  0  0  0  0
   -2.8253    1.0670    5.3778 O   0  0  0  0  0  0  0  0  0  0  0  0
   -1.3556    0.2577    3.7927 C   0  0  0  0  0  0  0  0  0  0  0  0
   -1.2488    0.1170    2.4112 C   0  0  0  0  0  0  0  0  0  0  0  0
   -0.0000   -0.0000    1.7826 C   0  0  0  0  0  0  0  0  0  0  0  0
    0.0000    0.0000    0.0000 S   0  0  0  0  0  0  0  0  0  0  0  0
    1.1592   -0.0000    2.5952 C   0  0  0  0  0  0  0  0  0  0  0  0
    1.0365    0.1155    3.9827 C   0  0  0  0  0  0  0  0  0  0  0  0
   -0.2081    0.2507    4.5966 C   0  0  0  0  0  0  0  0  0  0  0  0
   -0.2551    0.3916    5.9677 O   0  0  0  0  0  0  0  0  0  0  0  0
   -0.4110   -0.7316    6.7177 C   0  0  0  0  0  0  0  0  0  0  0  0
   -1.4762   -1.4453    6.3366 F   0  0  0  0  0  0  0  0  0  0  0  0
   -0.5556   -0.3623    7.9757 F   0  0  0  0  0  0  0  0  0  0  0  0
    0.6585   -1.5371    6.6208 F   0  0  0  0  0  0  0  0  0  0  0  0
    2.5567   -0.1666    2.0408 C   0  0  0  0  0  0  0  0  0  0  0  0
    2.9388   -1.2009    1.5151 O   0  0  0  0  0  0  0  0  0  0  0  0
    3.3660    0.9030    2.2376 N   0  0  0  0  0  0  0  0  0  0  0  0
   -2.1629    0.0952    1.8191 H   0  0  0  0  0  0  0  0  0  0  0  0
    1.1409   -1.9632   -0.4570 Au  0  0  0  0  0  0  0  0  0  0  0  0
    1.9213    0.1006    4.6208 H   0  0  0  0  0  0  0  0  0  0  0  0
    3.0062    1.7819    2.5863 H   0  0  0  0  0  0  0  0  0  0  0  0
    4.3134    0.8638    1.8770 H   0  0  0  0  0  0  0  0  0  0  0  0
  1  2  2  0  0  0  0
  2  3  2  0  0  0  0
  4  2  1  0  0  0  0
  4 10  2  0  0  0  0
  5  4  1  0  0  0  0
  6  5  2  0  0  0  0
  6  8  1  0  0  0  0
  7  6  1  0  0  0  0
  8  9  2  0  0  0  0
  9 10  1  0  0  0  0
  9 21  1  0  0  0  0
 10 11  1  0  0  0  0
 11 12  1  0  0  0  0
 12 14  1  0  0  0  0
 13 12  1  0  0  0  0
 15 12  1  0  0  0  0
 16 18  1  0  0  0  0
 16  8  1  0  0  0  0
 17 16  2  0  0  0  0
 18 22  1  0  0  0  0
 19  5  1  0  0  0  0
 20  7  1  0  0  0  0
 23 18  1  0  0  0  0
M  END
