317675093.xyz
 OpenBabel07262113503D
FC(c1cc(S)c(cc1C)C(=O)C)F
 24 24  0  0  0  0  0  0  0  0999 V2000
    2.9582   -1.1517    5.1101 F   0  0  0  0  0  0  0  0  0  0  0  0
    2.7251    0.0250    4.4538 C   0  0  0  0  0  0  0  0  0  0  0  0
    1.3609    0.0079    3.8091 C   0  0  0  0  0  0  0  0  0  0  0  0
    1.2522   -0.0000    2.4199 C   0  0  0  0  0  0  0  0  0  0  0  0
   -0.0000   -0.0000    1.7843 C   0  0  0  0  0  0  0  0  0  0  0  0
    0.0000    0.0000    0.0000 S   0  0  0  0  0  0  0  0  0  0  0  0
   -1.1674   -0.0021    2.5765 C   0  0  0  0  0  0  0  0  0  0  0  0
   -1.0364   -0.0552    3.9712 C   0  0  0  0  0  0  0  0  0  0  0  0
    0.2036   -0.0333    4.6153 C   0  0  0  0  0  0  0  0  0  0  0  0
    0.2876   -0.0682    6.1192 C   0  0  0  0  0  0  0  0  0  0  0  0
   -2.5845    0.0042    2.0514 C   0  0  0  0  0  0  0  0  0  0  0  0
   -3.4186   -0.6885    2.5987 O   0  0  0  0  0  0  0  0  0  0  0  0
   -2.9760    0.9416    0.9265 C   0  0  0  0  0  0  0  0  0  0  0  0
    3.7081    0.1743    3.5299 F   0  0  0  0  0  0  0  0  0  0  0  0
    2.8306    0.8382    5.1938 H   0  0  0  0  0  0  0  0  0  0  0  0
    2.1549   -0.0149    1.8098 H   0  0  0  0  0  0  0  0  0  0  0  0
   -0.8966   -2.0656   -0.4966 Au  0  0  0  0  0  0  0  0  0  0  0  0
   -1.9517   -0.1088    4.5642 H   0  0  0  0  0  0  0  0  0  0  0  0
    0.8039    0.8234    6.5145 H   0  0  0  0  0  0  0  0  0  0  0  0
   -0.7136   -0.1023    6.5695 H   0  0  0  0  0  0  0  0  0  0  0  0
    0.8579   -0.9435    6.4640 H   0  0  0  0  0  0  0  0  0  0  0  0
   -2.2404    1.7350    0.7473 H   0  0  0  0  0  0  0  0  0  0  0  0
   -3.9601    1.3647    1.1773 H   0  0  0  0  0  0  0  0  0  0  0  0
   -3.0834    0.3682   -0.0064 H   0  0  0  0  0  0  0  0  0  0  0  0
  2  1  1  0  0  0  0
  2 15  1  0  0  0  0
  3  2  1  0  0  0  0
  3  9  2  0  0  0  0
  4  3  1  0  0  0  0
  5  4  2  0  0  0  0
  5  7  1  0  0  0  0
  6  5  1  0  0  0  0
  7  8  2  0  0  0  0
  8 18  1  0  0  0  0
  8  9  1  0  0  0  0
  9 10  1  0  0  0  0
 10 21  1  0  0  0  0
 10 19  1  0  0  0  0
 10 20  1  0  0  0  0
 11  7  1  0  0  0  0
 11 12  2  0  0  0  0
 13 23  1  0  0  0  0
 13 11  1  0  0  0  0
 14  2  1  0  0  0  0
 16  4  1  0  0  0  0
 17  6  1  0  0  0  0
 22 13  1  0  0  0  0
 24 13  1  0  0  0  0
M  END
