317654544.xyz
 OpenBabel07262113503D
FC(Oc1c(S)ccc(c1C(=O)C)C(F)(F)F)F
 25 25  0  0  0  0  0  0  0  0999 V2000
   -3.4882    1.9429    1.9921 F   0  0  0  0  0  0  0  0  0  0  0  0
   -2.8647    1.0139    1.2232 C   0  0  0  0  0  0  0  0  0  0  0  0
   -2.4292   -0.0288    2.0131 O   0  0  0  0  0  0  0  0  0  0  0  0
   -1.1678    0.0317    2.5760 C   0  0  0  0  0  0  0  0  0  0  0  0
    0.0000   -0.0000    1.7801 C   0  0  0  0  0  0  0  0  0  0  0  0
    0.0000    0.0000    0.0000 S   0  0  0  0  0  0  0  0  0  0  0  0
    1.2441   -0.0000    2.4294 C   0  0  0  0  0  0  0  0  0  0  0  0
    1.3264    0.0011    3.8178 C   0  0  0  0  0  0  0  0  0  0  0  0
    0.1637   -0.0427    4.5917 C   0  0  0  0  0  0  0  0  0  0  0  0
   -1.0982   -0.0332    3.9723 C   0  0  0  0  0  0  0  0  0  0  0  0
   -2.3897   -0.2096    4.7732 C   0  0  0  0  0  0  0  0  0  0  0  0
   -2.7038   -1.3224    5.1195 O   0  0  0  0  0  0  0  0  0  0  0  0
   -3.1877    1.0260    5.0872 C   0  0  0  0  0  0  0  0  0  0  0  0
    0.2882   -0.1554    6.0951 C   0  0  0  0  0  0  0  0  0  0  0  0
    0.0690   -1.4059    6.5220 F   0  0  0  0  0  0  0  0  0  0  0  0
   -0.5973    0.6413    6.7291 F   0  0  0  0  0  0  0  0  0  0  0  0
    1.5127    0.2024    6.5160 F   0  0  0  0  0  0  0  0  0  0  0  0
   -3.7766    0.5100    0.3822 F   0  0  0  0  0  0  0  0  0  0  0  0
   -2.0532    1.5023    0.6657 H   0  0  0  0  0  0  0  0  0  0  0  0
   -1.3725   -1.7944   -0.4936 Au  0  0  0  0  0  0  0  0  0  0  0  0
    2.1507   -0.0253    1.8229 H   0  0  0  0  0  0  0  0  0  0  0  0
    2.3004    0.0034    4.3070 H   0  0  0  0  0  0  0  0  0  0  0  0
   -3.5793    1.4577    4.1553 H   0  0  0  0  0  0  0  0  0  0  0  0
   -2.5381    1.7806    5.5554 H   0  0  0  0  0  0  0  0  0  0  0  0
   -4.0165    0.7649    5.7582 H   0  0  0  0  0  0  0  0  0  0  0  0
  2  1  1  0  0  0  0
  2  3  1  0  0  0  0
  3  4  1  0  0  0  0
  4 10  2  0  0  0  0
  5  7  2  0  0  0  0
  5  4  1  0  0  0  0
  6  5  1  0  0  0  0
  7  8  1  0  0  0  0
  8 22  1  0  0  0  0
  8  9  2  0  0  0  0
  9 14  1  0  0  0  0
 10  9  1  0  0  0  0
 10 11  1  0  0  0  0
 11 13  1  0  0  0  0
 11 12  2  0  0  0  0
 13 24  1  0  0  0  0
 13 25  1  0  0  0  0
 14 17  1  0  0  0  0
 14 15  1  0  0  0  0
 14 16  1  0  0  0  0
 18  2  1  0  0  0  0
 19  2  1  0  0  0  0
 20  6  1  0  0  0  0
 21  7  1  0  0  0  0
 23 13  1  0  0  0  0
M  END
