317674073.xyz
 OpenBabel07262113503D
FC(c1cc(S)c(cc1C)C(=O)Cl)F
 21 21  0  0  0  0  0  0  0  0999 V2000
   -2.8905   -1.0374    5.2033 F   0  0  0  0  0  0  0  0  0  0  0  0
   -2.6686    0.1155    4.5035 C   0  0  0  0  0  0  0  0  0  0  0  0
   -1.3156    0.0719    3.8342 C   0  0  0  0  0  0  0  0  0  0  0  0
   -1.2372    0.0294    2.4432 C   0  0  0  0  0  0  0  0  0  0  0  0
    0.0000    0.0000    1.7800 C   0  0  0  0  0  0  0  0  0  0  0  0
    0.0000    0.0000    0.0000 S   0  0  0  0  0  0  0  0  0  0  0  0
    1.1685   -0.0000    2.5670 C   0  0  0  0  0  0  0  0  0  0  0  0
    1.0837   -0.0130    3.9628 C   0  0  0  0  0  0  0  0  0  0  0  0
   -0.1464    0.0427    4.6245 C   0  0  0  0  0  0  0  0  0  0  0  0
   -0.2059    0.0526    6.1299 C   0  0  0  0  0  0  0  0  0  0  0  0
    2.5159    0.0204    1.9299 C   0  0  0  0  0  0  0  0  0  0  0  0
    3.0283    0.8842    1.3107 O   0  0  0  0  0  0  0  0  0  0  0  0
    3.4096   -1.5590    2.2330 Cl  0  0  0  0  0  0  0  0  0  0  0  0
   -3.6668    0.2361    3.5933 F   0  0  0  0  0  0  0  0  0  0  0  0
   -2.7573    0.9543    5.2166 H   0  0  0  0  0  0  0  0  0  0  0  0
   -2.1530    0.0133    1.8530 H   0  0  0  0  0  0  0  0  0  0  0  0
    1.2414   -1.8907   -0.4755 Au  0  0  0  0  0  0  0  0  0  0  0  0
    2.0041   -0.0592    4.5489 H   0  0  0  0  0  0  0  0  0  0  0  0
    0.8019    0.0267    6.5661 H   0  0  0  0  0  0  0  0  0  0  0  0
   -0.7106    0.9587    6.5061 H   0  0  0  0  0  0  0  0  0  0  0  0
   -0.7748   -0.8088    6.5096 H   0  0  0  0  0  0  0  0  0  0  0  0
  2  1  1  0  0  0  0
  2 15  1  0  0  0  0
  3  2  1  0  0  0  0
  3  9  2  0  0  0  0
  4  3  1  0  0  0  0
  5  4  2  0  0  0  0
  5  7  1  0  0  0  0
  6  5  1  0  0  0  0
  7  8  2  0  0  0  0
  8 18  1  0  0  0  0
  8  9  1  0  0  0  0
  9 10  1  0  0  0  0
 10 20  1  0  0  0  0
 10 21  1  0  0  0  0
 10 19  1  0  0  0  0
 11 13  1  0  0  0  0
 11  7  1  0  0  0  0
 12 11  2  0  0  0  0
 14  2  1  0  0  0  0
 16  4  1  0  0  0  0
 17  6  1  0  0  0  0
M  END
