317690426.xyz
 OpenBabel07262113503D
Sc1c(ccc(c1F)C(F)F)OC(F)(F)F
 20 20  0  0  0  0  0  0  0  0999 V2000
    0.0000    0.0000    0.0000 S   0  0  0  0  0  0  0  0  0  0  0  0
    0.0000    0.0000    1.7724 C   0  0  0  0  0  0  0  0  0  0  0  0
   -1.2003    0.0757    2.5083 C   0  0  0  0  0  0  0  0  0  0  0  0
   -1.2075    0.1594    3.8984 C   0  0  0  0  0  0  0  0  0  0  0  0
    0.0056    0.1480    4.5867 C   0  0  0  0  0  0  0  0  0  0  0  0
    1.2214    0.0617    3.9033 C   0  0  0  0  0  0  0  0  0  0  0  0
    1.1977    0.0000    2.5065 C   0  0  0  0  0  0  0  0  0  0  0  0
    2.3486   -0.1027    1.8509 F   0  0  0  0  0  0  0  0  0  0  0  0
    2.5257    0.0356    4.6544 C   0  0  0  0  0  0  0  0  0  0  0  0
    3.2054   -1.1146    4.4020 F   0  0  0  0  0  0  0  0  0  0  0  0
    3.3232    1.0699    4.2817 F   0  0  0  0  0  0  0  0  0  0  0  0
   -2.3977    0.1188    1.8131 O   0  0  0  0  0  0  0  0  0  0  0  0
   -3.1643   -0.9968    1.7755 C   0  0  0  0  0  0  0  0  0  0  0  0
   -3.7042   -1.2758    2.9759 F   0  0  0  0  0  0  0  0  0  0  0  0
   -4.1449   -0.7895    0.9137 F   0  0  0  0  0  0  0  0  0  0  0  0
   -2.4694   -2.0790    1.4023 F   0  0  0  0  0  0  0  0  0  0  0  0
    0.6605   -2.1621   -0.4465 Au  0  0  0  0  0  0  0  0  0  0  0  0
   -2.1586    0.2315    4.4248 H   0  0  0  0  0  0  0  0  0  0  0  0
    0.0083    0.2078    5.6775 H   0  0  0  0  0  0  0  0  0  0  0  0
    2.3592    0.1041    5.7441 H   0  0  0  0  0  0  0  0  0  0  0  0
  1  2  1  0  0  0  0
  2  7  2  0  0  0  0
  2  3  1  0  0  0  0
  3  4  2  0  0  0  0
  4 18  1  0  0  0  0
  4  5  1  0  0  0  0
  5 19  1  0  0  0  0
  6  5  2  0  0  0  0
  6  9  1  0  0  0  0
  7  6  1  0  0  0  0
  8  7  1  0  0  0  0
  9 20  1  0  0  0  0
 10  9  1  0  0  0  0
 11  9  1  0  0  0  0
 12  3  1  0  0  0  0
 13 12  1  0  0  0  0
 13 14  1  0  0  0  0
 15 13  1  0  0  0  0
 16 13  1  0  0  0  0
 17  1  1  0  0  0  0
M  END
