317677950.xyz
 OpenBabel07262113503D
COc1cc(cc(c1OC(F)(F)F)S)C(=O)Cl
 23 23  0  0  0  0  0  0  0  0999 V2000
    2.3518   -0.3074    5.9841 C   0  0  0  0  0  0  0  0  0  0  0  0
    2.3102   -0.1172    4.5838 O   0  0  0  0  0  0  0  0  0  0  0  0
    1.1203   -0.1301    3.9548 C   0  0  0  0  0  0  0  0  0  0  0  0
   -0.1163   -0.2798    4.5864 C   0  0  0  0  0  0  0  0  0  0  0  0
   -1.2913   -0.2745    3.8188 C   0  0  0  0  0  0  0  0  0  0  0  0
   -1.2369   -0.1216    2.4286 C   0  0  0  0  0  0  0  0  0  0  0  0
    0.0000   -0.0000    1.7752 C   0  0  0  0  0  0  0  0  0  0  0  0
    1.1690    0.0000    2.5515 C   0  0  0  0  0  0  0  0  0  0  0  0
    2.3859    0.2300    1.9479 O   0  0  0  0  0  0  0  0  0  0  0  0
    3.3292   -0.7445    1.8191 C   0  0  0  0  0  0  0  0  0  0  0  0
    2.8619   -1.9480    2.1507 F   0  0  0  0  0  0  0  0  0  0  0  0
    4.3935   -0.4776    2.5745 F   0  0  0  0  0  0  0  0  0  0  0  0
    3.7385   -0.7796    0.5494 F   0  0  0  0  0  0  0  0  0  0  0  0
    0.0000    0.0000    0.0000 S   0  0  0  0  0  0  0  0  0  0  0  0
   -2.6478   -0.4111    4.4138 C   0  0  0  0  0  0  0  0  0  0  0  0
   -3.6750   -0.4051    3.8159 O   0  0  0  0  0  0  0  0  0  0  0  0
   -2.6720   -0.6011    6.2211 Cl  0  0  0  0  0  0  0  0  0  0  0  0
    3.4117   -0.2818    6.2659 H   0  0  0  0  0  0  0  0  0  0  0  0
    1.8140    0.4957    6.5169 H   0  0  0  0  0  0  0  0  0  0  0  0
    1.9217   -1.2824    6.2712 H   0  0  0  0  0  0  0  0  0  0  0  0
   -0.1846   -0.3898    5.6651 H   0  0  0  0  0  0  0  0  0  0  0  0
   -2.1607   -0.1038    1.8511 H   0  0  0  0  0  0  0  0  0  0  0  0
    1.4001    1.7404   -0.5705 Au  0  0  0  0  0  0  0  0  0  0  0  0
  1 18  1  0  0  0  0
  1 20  1  0  0  0  0
  1 19  1  0  0  0  0
  2  1  1  0  0  0  0
  3  2  1  0  0  0  0
  3  4  1  0  0  0  0
  4 21  1  0  0  0  0
  5 15  1  0  0  0  0
  5  4  2  0  0  0  0
  6  5  1  0  0  0  0
  7  6  2  0  0  0  0
  7  8  1  0  0  0  0
  8  3  2  0  0  0  0
  9  8  1  0  0  0  0
 10  9  1  0  0  0  0
 10 11  1  0  0  0  0
 10 12  1  0  0  0  0
 13 10  1  0  0  0  0
 14  7  1  0  0  0  0
 15 17  1  0  0  0  0
 16 15  2  0  0  0  0
 22  6  1  0  0  0  0
 23 14  1  0  0  0  0
M  END
