317664887.xyz
 OpenBabel07262113503D
COc1cc(cc(c1S)OC)C(=O)N
 25 25  0  0  0  0  0  0  0  0999 V2000
    3.6122   -0.1197    2.3301 C   0  0  0  0  0  0  0  0  0  0  0  0
    2.3500   -0.0961    1.7065 O   0  0  0  0  0  0  0  0  0  0  0  0
    1.2359    0.0000    2.4607 C   0  0  0  0  0  0  0  0  0  0  0  0
    1.2614    0.0978    3.8587 C   0  0  0  0  0  0  0  0  0  0  0  0
    0.0595    0.1788    4.5737 C   0  0  0  0  0  0  0  0  0  0  0  0
   -1.1681    0.1403    3.9092 C   0  0  0  0  0  0  0  0  0  0  0  0
   -1.2034    0.0600    2.5132 C   0  0  0  0  0  0  0  0  0  0  0  0
   -0.0000   -0.0000    1.7637 C   0  0  0  0  0  0  0  0  0  0  0  0
    0.0000    0.0000    0.0000 S   0  0  0  0  0  0  0  0  0  0  0  0
   -2.3490   -0.0018    1.8067 O   0  0  0  0  0  0  0  0  0  0  0  0
   -3.5861    0.0570    2.4857 C   0  0  0  0  0  0  0  0  0  0  0  0
    0.0134    0.2821    6.0745 C   0  0  0  0  0  0  0  0  0  0  0  0
   -0.9893    0.0030    6.7099 O   0  0  0  0  0  0  0  0  0  0  0  0
    1.1693    0.6979    6.6822 N   0  0  0  0  0  0  0  0  0  0  0  0
    4.3532   -0.2109    1.5255 H   0  0  0  0  0  0  0  0  0  0  0  0
    3.8080    0.8098    2.8946 H   0  0  0  0  0  0  0  0  0  0  0  0
    3.7167   -0.9807    3.0142 H   0  0  0  0  0  0  0  0  0  0  0  0
    2.2098    0.0628    4.3907 H   0  0  0  0  0  0  0  0  0  0  0  0
   -2.0708    0.1739    4.5154 H   0  0  0  0  0  0  0  0  0  0  0  0
   -1.1259   -1.9486   -0.5129 Au  0  0  0  0  0  0  0  0  0  0  0  0
   -3.7072   -0.7879    3.1850 H   0  0  0  0  0  0  0  0  0  0  0  0
   -3.6958    1.0018    3.0452 H   0  0  0  0  0  0  0  0  0  0  0  0
   -4.3629    0.0014    1.7125 H   0  0  0  0  0  0  0  0  0  0  0  0
    1.1190    0.8586    7.6816 H   0  0  0  0  0  0  0  0  0  0  0  0
    1.8777    1.1975    6.1618 H   0  0  0  0  0  0  0  0  0  0  0  0
  1 16  1  0  0  0  0
  1 17  1  0  0  0  0
  2  1  1  0  0  0  0
  2  3  1  0  0  0  0
  3  4  1  0  0  0  0
  4 18  1  0  0  0  0
  4  5  2  0  0  0  0
  5 12  1  0  0  0  0
  6 19  1  0  0  0  0
  6  5  1  0  0  0  0
  7  6  2  0  0  0  0
  8  3  2  0  0  0  0
  8  7  1  0  0  0  0
  9  8  1  0  0  0  0
 10 11  1  0  0  0  0
 10  7  1  0  0  0  0
 11 22  1  0  0  0  0
 11 21  1  0  0  0  0
 12 14  1  0  0  0  0
 12 13  2  0  0  0  0
 14 24  1  0  0  0  0
 15  1  1  0  0  0  0
 20  9  1  0  0  0  0
 23 11  1  0  0  0  0
 25 14  1  0  0  0  0
M  END
