317663351.xyz
 OpenBabel07262113503D
COc1cc(C(=O)N)c(cc1S)OC
 25 25  0  0  0  0  0  0  0  0999 V2000
    3.5670   -0.1236    2.5998 C   0  0  0  0  0  0  0  0  0  0  0  0
    2.3580   -0.1427    1.8709 O   0  0  0  0  0  0  0  0  0  0  0  0
    1.1892   -0.0000    2.5373 C   0  0  0  0  0  0  0  0  0  0  0  0
    1.0938    0.1138    3.9231 C   0  0  0  0  0  0  0  0  0  0  0  0
   -0.1347    0.2394    4.5857 C   0  0  0  0  0  0  0  0  0  0  0  0
   -0.0285    0.3648    6.0907 C   0  0  0  0  0  0  0  0  0  0  0  0
    1.0654    0.3497    6.6393 O   0  0  0  0  0  0  0  0  0  0  0  0
   -1.1863    0.4938    6.7862 N   0  0  0  0  0  0  0  0  0  0  0  0
   -1.3199    0.2321    3.8155 C   0  0  0  0  0  0  0  0  0  0  0  0
   -1.2359    0.0967    2.4259 C   0  0  0  0  0  0  0  0  0  0  0  0
   -0.0000   -0.0000    1.7687 C   0  0  0  0  0  0  0  0  0  0  0  0
    0.0000    0.0000    0.0000 S   0  0  0  0  0  0  0  0  0  0  0  0
   -2.5213    0.3475    4.4609 O   0  0  0  0  0  0  0  0  0  0  0  0
   -3.7188    0.3343    3.7128 C   0  0  0  0  0  0  0  0  0  0  0  0
    4.3729   -0.2367    1.8633 H   0  0  0  0  0  0  0  0  0  0  0  0
    3.6981    0.8296    3.1404 H   0  0  0  0  0  0  0  0  0  0  0  0
    3.6185   -0.9531    3.3263 H   0  0  0  0  0  0  0  0  0  0  0  0
    1.9734    0.1210    4.5651 H   0  0  0  0  0  0  0  0  0  0  0  0
   -2.0799    0.5010    6.3107 H   0  0  0  0  0  0  0  0  0  0  0  0
   -1.1159    0.5783    7.7922 H   0  0  0  0  0  0  0  0  0  0  0  0
   -2.1329    0.0662    1.8105 H   0  0  0  0  0  0  0  0  0  0  0  0
    1.2530   -1.8649   -0.5291 Au  0  0  0  0  0  0  0  0  0  0  0  0
   -3.8455   -0.6158    3.1657 H   0  0  0  0  0  0  0  0  0  0  0  0
   -4.5380    0.4443    4.4354 H   0  0  0  0  0  0  0  0  0  0  0  0
   -3.7572    1.1705    2.9937 H   0  0  0  0  0  0  0  0  0  0  0  0
  1 16  1  0  0  0  0
  1 17  1  0  0  0  0
  2  3  1  0  0  0  0
  2  1  1  0  0  0  0
  3  4  2  0  0  0  0
  4 18  1  0  0  0  0
  4  5  1  0  0  0  0
  5  6  1  0  0  0  0
  6  7  2  0  0  0  0
  6  8  1  0  0  0  0
  8 20  1  0  0  0  0
  9 13  1  0  0  0  0
  9  5  2  0  0  0  0
 10  9  1  0  0  0  0
 11 10  2  0  0  0  0
 11  3  1  0  0  0  0
 12 11  1  0  0  0  0
 14 24  1  0  0  0  0
 14 13  1  0  0  0  0
 15  1  1  0  0  0  0
 19  8  1  0  0  0  0
 21 10  1  0  0  0  0
 22 12  1  0  0  0  0
 23 14  1  0  0  0  0
 25 14  1  0  0  0  0
M  END
