317699953.xyz
 OpenBabel07262113503D
[O-][N+](=O)c1c(S)cc(cc1C(F)(F)F)C(=O)Cl
 20 20  0  0  0  0  0  0  0  0999 V2000
   -2.9035   -0.9680    1.5327 O   0  0  0  0  0  0  0  0  0  0  0  0
   -2.4757    0.1175    1.8812 N   0  0  0  0  0  0  0  0  0  0  0  0
   -3.0106    1.1926    1.7183 O   0  0  0  0  0  0  0  0  0  0  0  0
   -1.1636    0.1239    2.5633 C   0  0  0  0  0  0  0  0  0  0  0  0
    0.0000   -0.0000    1.7807 C   0  0  0  0  0  0  0  0  0  0  0  0
    0.0000    0.0000    0.0000 S   0  0  0  0  0  0  0  0  0  0  0  0
    1.2310    0.0000    2.4506 C   0  0  0  0  0  0  0  0  0  0  0  0
    1.2997    0.1154    3.8451 C   0  0  0  0  0  0  0  0  0  0  0  0
    0.1246    0.2326    4.5952 C   0  0  0  0  0  0  0  0  0  0  0  0
   -1.1158    0.2374    3.9572 C   0  0  0  0  0  0  0  0  0  0  0  0
   -2.3712    0.4326    4.7882 C   0  0  0  0  0  0  0  0  0  0  0  0
   -3.3591   -0.3794    4.3831 F   0  0  0  0  0  0  0  0  0  0  0  0
   -2.8177    1.6917    4.7032 F   0  0  0  0  0  0  0  0  0  0  0  0
   -2.1352    0.1733    6.0821 F   0  0  0  0  0  0  0  0  0  0  0  0
    2.6643    0.0972    4.4504 C   0  0  0  0  0  0  0  0  0  0  0  0
    3.6794    0.0009    3.8391 O   0  0  0  0  0  0  0  0  0  0  0  0
    2.6974    0.2341    6.2460 Cl  0  0  0  0  0  0  0  0  0  0  0  0
   -0.9667   -2.0429   -0.4851 Au  0  0  0  0  0  0  0  0  0  0  0  0
    2.1519   -0.0954    1.8746 H   0  0  0  0  0  0  0  0  0  0  0  0
    0.1732    0.3172    5.6788 H   0  0  0  0  0  0  0  0  0  0  0  0
  1  2  2  0  0  0  0
  2  4  1  0  0  0  0
  3  2  2  0  0  0  0
  4 10  2  0  0  0  0
  5  7  2  0  0  0  0
  5  4  1  0  0  0  0
  6  5  1  0  0  0  0
  7  8  1  0  0  0  0
  8 15  1  0  0  0  0
  8  9  2  0  0  0  0
  9 20  1  0  0  0  0
 10  9  1  0  0  0  0
 10 11  1  0  0  0  0
 11 14  1  0  0  0  0
 12 11  1  0  0  0  0
 13 11  1  0  0  0  0
 15 17  1  0  0  0  0
 16 15  2  0  0  0  0
 18  6  1  0  0  0  0
 19  7  1  0  0  0  0
M  END
