317647107.xyz
 OpenBabel07262113493D
COC(=O)Cc1c(I)cc(cc1CC)S
 28 28  0  0  0  0  0  0  0  0999 V2000
    0.6604    3.8948    6.4530 C   0  0  0  0  0  0  0  0  0  0  0  0
    0.7393    2.5153    6.0969 O   0  0  0  0  0  0  0  0  0  0  0  0
   -0.2216    1.7152    6.5807 C   0  0  0  0  0  0  0  0  0  0  0  0
   -1.1188    2.1012    7.2894 O   0  0  0  0  0  0  0  0  0  0  0  0
   -0.0278    0.2805    6.1127 C   0  0  0  0  0  0  0  0  0  0  0  0
   -0.0010    0.1612    4.6066 C   0  0  0  0  0  0  0  0  0  0  0  0
    1.1969    0.0827    3.8751 C   0  0  0  0  0  0  0  0  0  0  0  0
    3.1082    0.0780    4.8346 I   0  0  0  0  0  0  0  0  0  0  0  0
    1.2130    0.0000    2.4817 C   0  0  0  0  0  0  0  0  0  0  0  0
   -0.0000    0.0000    1.7832 C   0  0  0  0  0  0  0  0  0  0  0  0
   -1.2064    0.0842    2.4938 C   0  0  0  0  0  0  0  0  0  0  0  0
   -1.2273    0.1622    3.8877 C   0  0  0  0  0  0  0  0  0  0  0  0
   -2.5431    0.2385    4.6433 C   0  0  0  0  0  0  0  0  0  0  0  0
   -3.8071    0.3125    3.7917 C   0  0  0  0  0  0  0  0  0  0  0  0
    0.0000    0.0000    0.0000 S   0  0  0  0  0  0  0  0  0  0  0  0
   -0.2842    4.3340    6.0986 H   0  0  0  0  0  0  0  0  0  0  0  0
    0.7146    4.0192    7.5449 H   0  0  0  0  0  0  0  0  0  0  0  0
    1.5147    4.3828    5.9691 H   0  0  0  0  0  0  0  0  0  0  0  0
    0.9223   -0.0788    6.5333 H   0  0  0  0  0  0  0  0  0  0  0  0
   -0.8401   -0.3096    6.5517 H   0  0  0  0  0  0  0  0  0  0  0  0
    2.1517   -0.0653    1.9326 H   0  0  0  0  0  0  0  0  0  0  0  0
   -2.1360    0.0868    1.9272 H   0  0  0  0  0  0  0  0  0  0  0  0
   -2.6096   -0.6418    5.3081 H   0  0  0  0  0  0  0  0  0  0  0  0
   -2.5177    1.1010    5.3281 H   0  0  0  0  0  0  0  0  0  0  0  0
   -3.9273   -0.5761    3.1524 H   0  0  0  0  0  0  0  0  0  0  0  0
   -3.8068    1.1991    3.1383 H   0  0  0  0  0  0  0  0  0  0  0  0
   -4.6943    0.3772    4.4393 H   0  0  0  0  0  0  0  0  0  0  0  0
   -0.1657   -2.2398   -0.5110 Au  0  0  0  0  0  0  0  0  0  0  0  0
  1 17  1  0  0  0  0
  2  1  1  0  0  0  0
  2  3  1  0  0  0  0
  3  4  2  0  0  0  0
  5 19  1  0  0  0  0
  5 20  1  0  0  0  0
  5  3  1  0  0  0  0
  6  5  1  0  0  0  0
  7  6  2  0  0  0  0
  7  8  1  0  0  0  0
  9  7  1  0  0  0  0
 10  9  2  0  0  0  0
 10 11  1  0  0  0  0
 11 12  2  0  0  0  0
 12  6  1  0  0  0  0
 12 13  1  0  0  0  0
 13 23  1  0  0  0  0
 13 24  1  0  0  0  0
 14 27  1  0  0  0  0
 14 13  1  0  0  0  0
 15 10  1  0  0  0  0
 16  1  1  0  0  0  0
 18  1  1  0  0  0  0
 21  9  1  0  0  0  0
 22 11  1  0  0  0  0
 25 14  1  0  0  0  0
 26 14  1  0  0  0  0
 28 15  1  0  0  0  0
M  END
