317668176.xyz
 OpenBabel07262113503D
FC(c1c(I)ccc(c1S)[N+](=O)[O-])F
 18 18  0  0  0  0  0  0  0  0999 V2000
    3.3925    0.8224    2.0976 F   0  0  0  0  0  0  0  0  0  0  0  0
    2.5253   -0.1775    1.7942 C   0  0  0  0  0  0  0  0  0  0  0  0
    1.2109    0.0000    2.5317 C   0  0  0  0  0  0  0  0  0  0  0  0
    1.1598    0.1262    3.9321 C   0  0  0  0  0  0  0  0  0  0  0  0
    2.8833    0.0608    5.1779 I   0  0  0  0  0  0  0  0  0  0  0  0
   -0.0590    0.2994    4.5975 C   0  0  0  0  0  0  0  0  0  0  0  0
   -1.2469    0.3183    3.8750 C   0  0  0  0  0  0  0  0  0  0  0  0
   -1.2086    0.1372    2.4972 C   0  0  0  0  0  0  0  0  0  0  0  0
   -0.0000    0.0000    1.7912 C   0  0  0  0  0  0  0  0  0  0  0  0
    0.0000    0.0000    0.0000 S   0  0  0  0  0  0  0  0  0  0  0  0
   -2.5185    0.0756    1.8201 N   0  0  0  0  0  0  0  0  0  0  0  0
   -2.7609   -0.9080    1.1442 O   0  0  0  0  0  0  0  0  0  0  0  0
   -3.2867    0.9955    2.0361 O   0  0  0  0  0  0  0  0  0  0  0  0
    3.1012   -1.3570    2.1581 F   0  0  0  0  0  0  0  0  0  0  0  0
    2.3723   -0.1855    0.7081 H   0  0  0  0  0  0  0  0  0  0  0  0
   -0.0799    0.4171    5.6812 H   0  0  0  0  0  0  0  0  0  0  0  0
   -2.2065    0.4630    4.3727 H   0  0  0  0  0  0  0  0  0  0  0  0
   -0.2901   -2.2504   -0.4256 Au  0  0  0  0  0  0  0  0  0  0  0  0
  2  1  1  0  0  0  0
  2 14  1  0  0  0  0
  2  3  1  0  0  0  0
  3  4  2  0  0  0  0
  4  6  1  0  0  0  0
  4  5  1  0  0  0  0
  6 16  1  0  0  0  0
  7 17  1  0  0  0  0
  7  6  2  0  0  0  0
  8  7  1  0  0  0  0
  9  8  2  0  0  0  0
  9  3  1  0  0  0  0
 10  9  1  0  0  0  0
 11 13  2  0  0  0  0
 11  8  1  0  0  0  0
 12 11  2  0  0  0  0
 15  2  1  0  0  0  0
 18 10  1  0  0  0  0
M  END
