317679219.xyz
 OpenBabel07262113503D
COc1cc([N+](=O)[O-])c(cc1C(=O)Cl)S
 21 21  0  0  0  0  0  0  0  0999 V2000
    0.9048    0.6421    6.7425 C   0  0  0  0  0  0  0  0  0  0  0  0
   -0.2482    0.6110    5.9215 O   0  0  0  0  0  0  0  0  0  0  0  0
   -0.1315    0.3687    4.6114 C   0  0  0  0  0  0  0  0  0  0  0  0
    1.1011    0.2039    3.9646 C   0  0  0  0  0  0  0  0  0  0  0  0
    1.1488   -0.0000    2.5888 C   0  0  0  0  0  0  0  0  0  0  0  0
    2.4997   -0.2174    2.0321 N   0  0  0  0  0  0  0  0  0  0  0  0
    2.6521   -1.1499    1.2654 O   0  0  0  0  0  0  0  0  0  0  0  0
    3.3790    0.5345    2.4164 O   0  0  0  0  0  0  0  0  0  0  0  0
    0.0000   -0.0000    1.7769 C   0  0  0  0  0  0  0  0  0  0  0  0
   -1.2223    0.1805    2.4455 C   0  0  0  0  0  0  0  0  0  0  0  0
   -1.3157    0.3221    3.8327 C   0  0  0  0  0  0  0  0  0  0  0  0
   -2.6973    0.4549    4.3792 C   0  0  0  0  0  0  0  0  0  0  0  0
   -3.5901    1.0214    3.8341 O   0  0  0  0  0  0  0  0  0  0  0  0
   -2.9962   -0.4578    5.8965 Cl  0  0  0  0  0  0  0  0  0  0  0  0
    0.0000    0.0000    0.0000 S   0  0  0  0  0  0  0  0  0  0  0  0
    0.5464    0.8219    7.7633 H   0  0  0  0  0  0  0  0  0  0  0  0
    1.5875    1.4564    6.4465 H   0  0  0  0  0  0  0  0  0  0  0  0
    1.4461   -0.3185    6.7105 H   0  0  0  0  0  0  0  0  0  0  0  0
    2.0410    0.2535    4.5088 H   0  0  0  0  0  0  0  0  0  0  0  0
   -2.1394    0.2004    1.8558 H   0  0  0  0  0  0  0  0  0  0  0  0
    0.2730   -2.2337   -0.5139 Au  0  0  0  0  0  0  0  0  0  0  0  0
  1 16  1  0  0  0  0
  2  1  1  0  0  0  0
  3  2  1  0  0  0  0
  4 19  1  0  0  0  0
  4  3  1  0  0  0  0
  5  4  2  0  0  0  0
  6  8  2  0  0  0  0
  6  5  1  0  0  0  0
  7  6  2  0  0  0  0
  9 10  2  0  0  0  0
  9  5  1  0  0  0  0
 10 11  1  0  0  0  0
 11 12  1  0  0  0  0
 11  3  2  0  0  0  0
 12 14  1  0  0  0  0
 13 12  2  0  0  0  0
 15  9  1  0  0  0  0
 17  1  1  0  0  0  0
 18  1  1  0  0  0  0
 20 10  1  0  0  0  0
 21 15  1  0  0  0  0
M  END
