317671005.xyz
 OpenBabel07262113503D
COc1cc(C(F)F)c(c(c1)C(=O)Cl)S
 22 22  0  0  0  0  0  0  0  0999 V2000
   -1.2280    0.5995    6.6690 C   0  0  0  0  0  0  0  0  0  0  0  0
   -0.0262    0.4423    5.9407 O   0  0  0  0  0  0  0  0  0  0  0  0
   -0.0847    0.3054    4.6018 C   0  0  0  0  0  0  0  0  0  0  0  0
   -1.2677    0.2986    3.8550 C   0  0  0  0  0  0  0  0  0  0  0  0
   -1.2224    0.1540    2.4658 C   0  0  0  0  0  0  0  0  0  0  0  0
   -2.5288    0.2054    1.7028 C   0  0  0  0  0  0  0  0  0  0  0  0
   -3.5737   -0.0725    2.5352 F   0  0  0  0  0  0  0  0  0  0  0  0
   -2.7352    1.4558    1.2085 F   0  0  0  0  0  0  0  0  0  0  0  0
   -0.0000   -0.0000    1.7811 C   0  0  0  0  0  0  0  0  0  0  0  0
    1.1934    0.0000    2.5563 C   0  0  0  0  0  0  0  0  0  0  0  0
    1.1436    0.1664    3.9382 C   0  0  0  0  0  0  0  0  0  0  0  0
    2.5229   -0.2469    1.9223 C   0  0  0  0  0  0  0  0  0  0  0  0
    2.7817   -1.0426    1.0811 O   0  0  0  0  0  0  0  0  0  0  0  0
    3.8358    0.8145    2.5860 Cl  0  0  0  0  0  0  0  0  0  0  0  0
    0.0000    0.0000    0.0000 S   0  0  0  0  0  0  0  0  0  0  0  0
   -1.8893   -0.2769    6.5536 H   0  0  0  0  0  0  0  0  0  0  0  0
   -0.9410    0.6976    7.7234 H   0  0  0  0  0  0  0  0  0  0  0  0
   -1.7753    1.5056    6.3564 H   0  0  0  0  0  0  0  0  0  0  0  0
   -2.2409    0.4007    4.3303 H   0  0  0  0  0  0  0  0  0  0  0  0
   -2.5500   -0.5061    0.8641 H   0  0  0  0  0  0  0  0  0  0  0  0
    2.0594    0.1880    4.5278 H   0  0  0  0  0  0  0  0  0  0  0  0
    0.3251   -2.2296   -0.5137 Au  0  0  0  0  0  0  0  0  0  0  0  0
  1 17  1  0  0  0  0
  2  1  1  0  0  0  0
  3  2  1  0  0  0  0
  4 19  1  0  0  0  0
  4  3  2  0  0  0  0
  5  4  1  0  0  0  0
  6  5  1  0  0  0  0
  6  7  1  0  0  0  0
  8  6  1  0  0  0  0
  9  5  2  0  0  0  0
  9 10  1  0  0  0  0
 10 11  2  0  0  0  0
 11 21  1  0  0  0  0
 11  3  1  0  0  0  0
 12 10  1  0  0  0  0
 12 14  1  0  0  0  0
 13 12  2  0  0  0  0
 15  9  1  0  0  0  0
 16  1  1  0  0  0  0
 18  1  1  0  0  0  0
 20  6  1  0  0  0  0
 22 15  1  0  0  0  0
M  END
