317701497.xyz
 OpenBabel07262113503D
CC(=O)c1c(S)ccc(c1OC(F)(F)F)C(F)(F)F
 25 25  0  0  0  0  0  0  0  0999 V2000
    3.0955    1.1972    1.3125 C   0  0  0  0  0  0  0  0  0  0  0  0
    2.5503   -0.0843    1.8818 C   0  0  0  0  0  0  0  0  0  0  0  0
    3.1125   -1.1525    1.7981 O   0  0  0  0  0  0  0  0  0  0  0  0
    1.1874   -0.0000    2.5535 C   0  0  0  0  0  0  0  0  0  0  0  0
   -0.0000    0.0000    1.7866 C   0  0  0  0  0  0  0  0  0  0  0  0
    0.0000    0.0000    0.0000 S   0  0  0  0  0  0  0  0  0  0  0  0
   -1.2431    0.0410    2.4352 C   0  0  0  0  0  0  0  0  0  0  0  0
   -1.3195    0.0755    3.8251 C   0  0  0  0  0  0  0  0  0  0  0  0
   -0.1562    0.0497    4.5956 C   0  0  0  0  0  0  0  0  0  0  0  0
    1.0859    0.0069    3.9459 C   0  0  0  0  0  0  0  0  0  0  0  0
    2.2237   -0.0944    4.7371 O   0  0  0  0  0  0  0  0  0  0  0  0
    3.0262    0.9756    4.9757 C   0  0  0  0  0  0  0  0  0  0  0  0
    3.4286    0.9412    6.2355 F   0  0  0  0  0  0  0  0  0  0  0  0
    4.1174    0.9378    4.1949 F   0  0  0  0  0  0  0  0  0  0  0  0
    2.4067    2.1382    4.7397 F   0  0  0  0  0  0  0  0  0  0  0  0
   -0.2325    0.0288    6.1052 C   0  0  0  0  0  0  0  0  0  0  0  0
   -1.5025    0.1395    6.5293 F   0  0  0  0  0  0  0  0  0  0  0  0
    0.4580    1.0466    6.6508 F   0  0  0  0  0  0  0  0  0  0  0  0
    0.2612   -1.1091    6.6118 F   0  0  0  0  0  0  0  0  0  0  0  0
    4.1211    1.0394    0.9546 H   0  0  0  0  0  0  0  0  0  0  0  0
    3.0647    2.0025    2.0606 H   0  0  0  0  0  0  0  0  0  0  0  0
    2.4453    1.4984    0.4749 H   0  0  0  0  0  0  0  0  0  0  0  0
    1.0713   -1.9943   -0.4678 Au  0  0  0  0  0  0  0  0  0  0  0  0
   -2.1528    0.0263    1.8335 H   0  0  0  0  0  0  0  0  0  0  0  0
   -2.2891    0.1037    4.3221 H   0  0  0  0  0  0  0  0  0  0  0  0
  1  2  1  0  0  0  0
  1 21  1  0  0  0  0
  2  4  1  0  0  0  0
  3  2  2  0  0  0  0
  4 10  2  0  0  0  0
  5  7  2  0  0  0  0
  5  4  1  0  0  0  0
  6  5  1  0  0  0  0
  7  8  1  0  0  0  0
  8 25  1  0  0  0  0
  8  9  2  0  0  0  0
  9 16  1  0  0  0  0
 10  9  1  0  0  0  0
 10 11  1  0  0  0  0
 11 12  1  0  0  0  0
 12 13  1  0  0  0  0
 14 12  1  0  0  0  0
 15 12  1  0  0  0  0
 16 17  1  0  0  0  0
 16 19  1  0  0  0  0
 16 18  1  0  0  0  0
 20  1  1  0  0  0  0
 22  1  1  0  0  0  0
 23  6  1  0  0  0  0
 24  7  1  0  0  0  0
M  END
