317706559.xyz
 OpenBabel07262113503D
FC(c1c(S)ccc(c1F)C(=O)Cl)F
 18 18  0  0  0  0  0  0  0  0999 V2000
    2.8872    1.4154    1.8773 F   0  0  0  0  0  0  0  0  0  0  0  0
    2.5700    0.1113    2.1697 C   0  0  0  0  0  0  0  0  0  0  0  0
    1.1332   -0.0000    2.6274 C   0  0  0  0  0  0  0  0  0  0  0  0
   -0.0000   -0.0000    1.7779 C   0  0  0  0  0  0  0  0  0  0  0  0
    0.0000    0.0000    0.0000 S   0  0  0  0  0  0  0  0  0  0  0  0
   -1.2800   -0.1139    2.3580 C   0  0  0  0  0  0  0  0  0  0  0  0
   -1.4408   -0.2230    3.7291 C   0  0  0  0  0  0  0  0  0  0  0  0
   -0.3354   -0.2204    4.5990 C   0  0  0  0  0  0  0  0  0  0  0  0
    0.9331   -0.0840    4.0121 C   0  0  0  0  0  0  0  0  0  0  0  0
    2.0195   -0.0158    4.7870 F   0  0  0  0  0  0  0  0  0  0  0  0
   -0.6494   -0.3256    6.0492 C   0  0  0  0  0  0  0  0  0  0  0  0
   -1.7255   -0.1036    6.5127 O   0  0  0  0  0  0  0  0  0  0  0  0
    0.6678   -0.9183    7.1092 Cl  0  0  0  0  0  0  0  0  0  0  0  0
    2.8137   -0.6235    1.0602 F   0  0  0  0  0  0  0  0  0  0  0  0
    3.2637   -0.2178    2.9551 H   0  0  0  0  0  0  0  0  0  0  0  0
    1.2875    1.8087   -0.6118 Au  0  0  0  0  0  0  0  0  0  0  0  0
   -2.1523   -0.0982    1.7033 H   0  0  0  0  0  0  0  0  0  0  0  0
   -2.4364   -0.3008    4.1682 H   0  0  0  0  0  0  0  0  0  0  0  0
  1  2  1  0  0  0  0
  2  3  1  0  0  0  0
  2 15  1  0  0  0  0
  3  9  2  0  0  0  0
  4  6  2  0  0  0  0
  4  3  1  0  0  0  0
  5  4  1  0  0  0  0
  6  7  1  0  0  0  0
  7 18  1  0  0  0  0
  7  8  2  0  0  0  0
  8 11  1  0  0  0  0
  9  8  1  0  0  0  0
  9 10  1  0  0  0  0
 11 12  2  0  0  0  0
 11 13  1  0  0  0  0
 14  2  1  0  0  0  0
 16  5  1  0  0  0  0
 17  6  1  0  0  0  0
M  END
