317717828.xyz
 OpenBabel07262113503D
FC(c1c(S)ccc(c1I)C(=O)Cl)F
 18 18  0  0  0  0  0  0  0  0999 V2000
   -2.7863   -1.0044    1.2126 F   0  0  0  0  0  0  0  0  0  0  0  0
   -2.5450    0.1453    1.9050 C   0  0  0  0  0  0  0  0  0  0  0  0
   -1.1823    0.0935    2.5715 C   0  0  0  0  0  0  0  0  0  0  0  0
   -0.0000    0.0000    1.7911 C   0  0  0  0  0  0  0  0  0  0  0  0
    0.0000    0.0000    0.0000 S   0  0  0  0  0  0  0  0  0  0  0  0
    1.2520    0.0000    2.4210 C   0  0  0  0  0  0  0  0  0  0  0  0
    1.3523    0.0611    3.8053 C   0  0  0  0  0  0  0  0  0  0  0  0
    0.1971    0.1008    4.5932 C   0  0  0  0  0  0  0  0  0  0  0  0
   -1.0627    0.1376    3.9713 C   0  0  0  0  0  0  0  0  0  0  0  0
   -2.7707    0.3782    5.2457 I   0  0  0  0  0  0  0  0  0  0  0  0
    0.4172    0.1139    6.0755 C   0  0  0  0  0  0  0  0  0  0  0  0
    0.9402    0.9780    6.6954 O   0  0  0  0  0  0  0  0  0  0  0  0
   -0.0467   -1.4452    6.8517 Cl  0  0  0  0  0  0  0  0  0  0  0  0
   -2.6281    1.1841    1.0409 F   0  0  0  0  0  0  0  0  0  0  0  0
   -3.3505    0.2555    2.6435 H   0  0  0  0  0  0  0  0  0  0  0  0
   -0.3202   -2.2347   -0.4604 Au  0  0  0  0  0  0  0  0  0  0  0  0
    2.1486   -0.0523    1.8024 H   0  0  0  0  0  0  0  0  0  0  0  0
    2.3312    0.0618    4.2892 H   0  0  0  0  0  0  0  0  0  0  0  0
  1  2  1  0  0  0  0
  2  3  1  0  0  0  0
  2 15  1  0  0  0  0
  3  9  2  0  0  0  0
  4  6  2  0  0  0  0
  4  3  1  0  0  0  0
  5  4  1  0  0  0  0
  6  7  1  0  0  0  0
  7 18  1  0  0  0  0
  7  8  2  0  0  0  0
  8 11  1  0  0  0  0
  9  8  1  0  0  0  0
  9 10  1  0  0  0  0
 11 12  2  0  0  0  0
 11 13  1  0  0  0  0
 14  2  1  0  0  0  0
 16  5  1  0  0  0  0
 17  6  1  0  0  0  0
M  END
