317702012.xyz
 OpenBabel07262113503D
ClC(=O)c1ccc(c(c1OC(F)(F)F)C(F)(F)F)S
 22 22  0  0  0  0  0  0  0  0999 V2000
    1.8690    0.6081    6.7420 Cl  0  0  0  0  0  0  0  0  0  0  0  0
    0.3643   -0.1670    6.0883 C   0  0  0  0  0  0  0  0  0  0  0  0
   -0.3942   -0.7002    6.8257 O   0  0  0  0  0  0  0  0  0  0  0  0
    0.2469   -0.0520    4.6038 C   0  0  0  0  0  0  0  0  0  0  0  0
    1.3839   -0.0336    3.7903 C   0  0  0  0  0  0  0  0  0  0  0  0
    1.2592   -0.0000    2.4087 C   0  0  0  0  0  0  0  0  0  0  0  0
   -0.0000   -0.0000    1.7913 C   0  0  0  0  0  0  0  0  0  0  0  0
   -1.1717   -0.0522    2.5922 C   0  0  0  0  0  0  0  0  0  0  0  0
   -1.0257   -0.0381    3.9900 C   0  0  0  0  0  0  0  0  0  0  0  0
   -2.1364   -0.0171    4.8073 O   0  0  0  0  0  0  0  0  0  0  0  0
   -2.6214    1.1917    5.1979 C   0  0  0  0  0  0  0  0  0  0  0  0
   -3.7138    0.9818    5.9033 F   0  0  0  0  0  0  0  0  0  0  0  0
   -1.7348    1.8647    5.9476 F   0  0  0  0  0  0  0  0  0  0  0  0
   -2.9114    1.9760    4.1502 F   0  0  0  0  0  0  0  0  0  0  0  0
   -2.5419   -0.1430    1.9167 C   0  0  0  0  0  0  0  0  0  0  0  0
   -2.5602   -1.1487    1.0336 F   0  0  0  0  0  0  0  0  0  0  0  0
   -2.8313    0.9949    1.2578 F   0  0  0  0  0  0  0  0  0  0  0  0
   -3.5492   -0.3669    2.7644 F   0  0  0  0  0  0  0  0  0  0  0  0
    0.0000    0.0000    0.0000 S   0  0  0  0  0  0  0  0  0  0  0  0
    2.3692   -0.0375    4.2552 H   0  0  0  0  0  0  0  0  0  0  0  0
    2.1465    0.0337    1.7761 H   0  0  0  0  0  0  0  0  0  0  0  0
   -0.3867    2.2289   -0.4456 Au  0  0  0  0  0  0  0  0  0  0  0  0
  2  1  1  0  0  0  0
  2  3  2  0  0  0  0
  4  2  1  0  0  0  0
  5 20  1  0  0  0  0
  5  4  2  0  0  0  0
  6  5  1  0  0  0  0
  7  6  2  0  0  0  0
  7  8  1  0  0  0  0
  8  9  2  0  0  0  0
  9  4  1  0  0  0  0
  9 10  1  0  0  0  0
 10 11  1  0  0  0  0
 11 12  1  0  0  0  0
 11 13  1  0  0  0  0
 14 11  1  0  0  0  0
 15  8  1  0  0  0  0
 15 18  1  0  0  0  0
 16 15  1  0  0  0  0
 17 15  1  0  0  0  0
 19  7  1  0  0  0  0
 21  6  1  0  0  0  0
 22 19  1  0  0  0  0
M  END
