317703280.xyz
 OpenBabel07262113503D
ClCC(=O)c1cc(cc(c1OC(F)(F)F)S)C(F)(F)F
 25 25  0  0  0  0  0  0  0  0999 V2000
    1.4346    2.1607    6.3404 Cl  0  0  0  0  0  0  0  0  0  0  0  0
    2.1870    0.5264    6.2665 C   0  0  0  0  0  0  0  0  0  0  0  0
    2.3169    0.0128    4.8322 C   0  0  0  0  0  0  0  0  0  0  0  0
    3.4004   -0.3593    4.4440 O   0  0  0  0  0  0  0  0  0  0  0  0
    1.0855   -0.0286    3.9764 C   0  0  0  0  0  0  0  0  0  0  0  0
   -0.1781   -0.1148    4.5792 C   0  0  0  0  0  0  0  0  0  0  0  0
   -1.3330   -0.1672    3.8039 C   0  0  0  0  0  0  0  0  0  0  0  0
   -1.2464   -0.0831    2.4148 C   0  0  0  0  0  0  0  0  0  0  0  0
    0.0000   -0.0000    1.7752 C   0  0  0  0  0  0  0  0  0  0  0  0
    1.1668   -0.0000    2.5703 C   0  0  0  0  0  0  0  0  0  0  0  0
    2.3899    0.1828    1.9635 O   0  0  0  0  0  0  0  0  0  0  0  0
    3.1743   -0.8681    1.5690 C   0  0  0  0  0  0  0  0  0  0  0  0
    4.4371   -0.5886    1.8477 F   0  0  0  0  0  0  0  0  0  0  0  0
    2.8178   -2.0069    2.1591 F   0  0  0  0  0  0  0  0  0  0  0  0
    3.0888   -1.0497    0.2455 F   0  0  0  0  0  0  0  0  0  0  0  0
    0.0000    0.0000    0.0000 S   0  0  0  0  0  0  0  0  0  0  0  0
   -2.6824   -0.3237    4.4608 C   0  0  0  0  0  0  0  0  0  0  0  0
   -3.6347    0.3553    3.8019 F   0  0  0  0  0  0  0  0  0  0  0  0
   -2.6701    0.1139    5.7310 F   0  0  0  0  0  0  0  0  0  0  0  0
   -3.0638   -1.6134    4.4891 F   0  0  0  0  0  0  0  0  0  0  0  0
    3.1979    0.5896    6.6840 H   0  0  0  0  0  0  0  0  0  0  0  0
    1.5804   -0.1536    6.8818 H   0  0  0  0  0  0  0  0  0  0  0  0
   -0.2714   -0.1213    5.6632 H   0  0  0  0  0  0  0  0  0  0  0  0
   -2.1513   -0.0650    1.8063 H   0  0  0  0  0  0  0  0  0  0  0  0
    1.3172    1.8176   -0.5317 Au  0  0  0  0  0  0  0  0  0  0  0  0
  2  1  1  0  0  0  0
  2 21  1  0  0  0  0
  2 22  1  0  0  0  0
  3  2  1  0  0  0  0
  4  3  2  0  0  0  0
  5  6  1  0  0  0  0
  5  3  1  0  0  0  0
  6 23  1  0  0  0  0
  7 17  1  0  0  0  0
  7  6  2  0  0  0  0
  8  7  1  0  0  0  0
  9  8  2  0  0  0  0
  9 10  1  0  0  0  0
 10  5  2  0  0  0  0
 11 10  1  0  0  0  0
 12 13  1  0  0  0  0
 12 11  1  0  0  0  0
 12 14  1  0  0  0  0
 15 12  1  0  0  0  0
 16  9  1  0  0  0  0
 17 20  1  0  0  0  0
 17 19  1  0  0  0  0
 18 17  1  0  0  0  0
 24  8  1  0  0  0  0
 25 16  1  0  0  0  0
M  END
