317715314.xyz
 OpenBabel07262113503D
COc1c(S)ccc(c1[N+](=O)[O-])OC(F)(F)F
 23 23  0  0  0  0  0  0  0  0999 V2000
    3.0023   -1.0330    1.3961 C   0  0  0  0  0  0  0  0  0  0  0  0
    2.4107    0.1426    1.9687 O   0  0  0  0  0  0  0  0  0  0  0  0
    1.1932    0.0000    2.5372 C   0  0  0  0  0  0  0  0  0  0  0  0
   -0.0000    0.0000    1.7758 C   0  0  0  0  0  0  0  0  0  0  0  0
    0.0000    0.0000    0.0000 S   0  0  0  0  0  0  0  0  0  0  0  0
   -1.2339   -0.0528    2.4451 C   0  0  0  0  0  0  0  0  0  0  0  0
   -1.3126   -0.1172    3.8351 C   0  0  0  0  0  0  0  0  0  0  0  0
   -0.1398   -0.0767    4.5866 C   0  0  0  0  0  0  0  0  0  0  0  0
    1.0963   -0.0200    3.9358 C   0  0  0  0  0  0  0  0  0  0  0  0
    2.3320    0.0156    4.7350 N   0  0  0  0  0  0  0  0  0  0  0  0
    3.1538   -0.8595    4.5261 O   0  0  0  0  0  0  0  0  0  0  0  0
    2.4382    0.9143    5.5471 O   0  0  0  0  0  0  0  0  0  0  0  0
   -0.1435   -0.1775    5.9639 O   0  0  0  0  0  0  0  0  0  0  0  0
   -0.7070    0.8200    6.6979 C   0  0  0  0  0  0  0  0  0  0  0  0
   -0.3121    2.0266    6.2972 F   0  0  0  0  0  0  0  0  0  0  0  0
   -2.0504    0.7923    6.6165 F   0  0  0  0  0  0  0  0  0  0  0  0
   -0.3623    0.6336    7.9592 F   0  0  0  0  0  0  0  0  0  0  0  0
    3.2270   -1.7566    2.1927 H   0  0  0  0  0  0  0  0  0  0  0  0
    3.9333   -0.7027    0.9189 H   0  0  0  0  0  0  0  0  0  0  0  0
    2.3370   -1.4735    0.6388 H   0  0  0  0  0  0  0  0  0  0  0  0
    1.3473    1.8130   -0.4836 Au  0  0  0  0  0  0  0  0  0  0  0  0
   -2.1489   -0.0417    1.8505 H   0  0  0  0  0  0  0  0  0  0  0  0
   -2.2739   -0.1833    4.3431 H   0  0  0  0  0  0  0  0  0  0  0  0
  1  2  1  0  0  0  0
  1 18  1  0  0  0  0
  2  3  1  0  0  0  0
  3  9  2  0  0  0  0
  4  6  2  0  0  0  0
  4  3  1  0  0  0  0
  5  4  1  0  0  0  0
  6  7  1  0  0  0  0
  7 23  1  0  0  0  0
  7  8  2  0  0  0  0
  8 13  1  0  0  0  0
  9  8  1  0  0  0  0
  9 10  1  0  0  0  0
 10 12  2  0  0  0  0
 11 10  2  0  0  0  0
 13 14  1  0  0  0  0
 14 17  1  0  0  0  0
 15 14  1  0  0  0  0
 16 14  1  0  0  0  0
 19  1  1  0  0  0  0
 20  1  1  0  0  0  0
 21  5  1  0  0  0  0
 22  6  1  0  0  0  0
M  END
