317700465.xyz
 OpenBabel07262113503D
[O-][N+](=O)c1cc(cc(c1C(F)(F)F)S)C(=O)Cl
 20 20  0  0  0  0  0  0  0  0999 V2000
    2.4837    0.4664    5.7184 O   0  0  0  0  0  0  0  0  0  0  0  0
    2.3594   -0.2602    4.7509 N   0  0  0  0  0  0  0  0  0  0  0  0
    3.0896   -1.1816    4.4408 O   0  0  0  0  0  0  0  0  0  0  0  0
    1.1507   -0.0600    3.9146 C   0  0  0  0  0  0  0  0  0  0  0  0
   -0.0429   -0.0224    4.6210 C   0  0  0  0  0  0  0  0  0  0  0  0
   -1.2388    0.0194    3.8998 C   0  0  0  0  0  0  0  0  0  0  0  0
   -1.2078    0.0249    2.5044 C   0  0  0  0  0  0  0  0  0  0  0  0
    0.0000   -0.0000    1.7857 C   0  0  0  0  0  0  0  0  0  0  0  0
    1.2190   -0.0000    2.5127 C   0  0  0  0  0  0  0  0  0  0  0  0
    2.5666    0.0881    1.8004 C   0  0  0  0  0  0  0  0  0  0  0  0
    2.4723    0.8584    0.7025 F   0  0  0  0  0  0  0  0  0  0  0  0
    3.0116   -1.1098    1.4203 F   0  0  0  0  0  0  0  0  0  0  0  0
    3.4944    0.6633    2.5769 F   0  0  0  0  0  0  0  0  0  0  0  0
    0.0000    0.0000    0.0000 S   0  0  0  0  0  0  0  0  0  0  0  0
   -2.5903    0.0490    4.5359 C   0  0  0  0  0  0  0  0  0  0  0  0
   -3.6208    0.0495    3.9412 O   0  0  0  0  0  0  0  0  0  0  0  0
   -2.5770    0.0872    6.3312 Cl  0  0  0  0  0  0  0  0  0  0  0  0
   -0.0307   -0.0389    5.7086 H   0  0  0  0  0  0  0  0  0  0  0  0
   -2.1553    0.0530    1.9675 H   0  0  0  0  0  0  0  0  0  0  0  0
   -1.9825   -1.0261   -0.5667 Au  0  0  0  0  0  0  0  0  0  0  0  0
  2  1  2  0  0  0  0
  3  2  2  0  0  0  0
  4  5  1  0  0  0  0
  4  2  1  0  0  0  0
  5 18  1  0  0  0  0
  6 15  1  0  0  0  0
  6  5  2  0  0  0  0
  7  6  1  0  0  0  0
  8  7  2  0  0  0  0
  8  9  1  0  0  0  0
  9  4  2  0  0  0  0
 10  9  1  0  0  0  0
 10 13  1  0  0  0  0
 11 10  1  0  0  0  0
 12 10  1  0  0  0  0
 14  8  1  0  0  0  0
 15 17  1  0  0  0  0
 16 15  2  0  0  0  0
 19  7  1  0  0  0  0
 20 14  1  0  0  0  0
M  END
