317717619.xyz
 OpenBabel07262113503D
COc1cc(S)c(cc1OC(F)(F)F)[N+](=O)[O-]
 23 23  0  0  0  0  0  0  0  0999 V2000
   -3.7656    0.5213    3.6726 C   0  0  0  0  0  0  0  0  0  0  0  0
   -2.5593    0.5280    4.4141 O   0  0  0  0  0  0  0  0  0  0  0  0
   -1.3956    0.3583    3.7751 C   0  0  0  0  0  0  0  0  0  0  0  0
   -1.2549    0.1861    2.3928 C   0  0  0  0  0  0  0  0  0  0  0  0
    0.0000   -0.0000    1.7823 C   0  0  0  0  0  0  0  0  0  0  0  0
    0.0000    0.0000    0.0000 S   0  0  0  0  0  0  0  0  0  0  0  0
    1.1370    0.0000    2.6167 C   0  0  0  0  0  0  0  0  0  0  0  0
    1.0185    0.1920    3.9968 C   0  0  0  0  0  0  0  0  0  0  0  0
   -0.2282    0.3540    4.5713 C   0  0  0  0  0  0  0  0  0  0  0  0
   -0.3545    0.5706    5.9334 O   0  0  0  0  0  0  0  0  0  0  0  0
   -0.3812   -0.5167    6.7432 C   0  0  0  0  0  0  0  0  0  0  0  0
   -1.3105   -1.4044    6.3702 F   0  0  0  0  0  0  0  0  0  0  0  0
   -0.6441   -0.1023    7.9713 F   0  0  0  0  0  0  0  0  0  0  0  0
    0.7971   -1.1610    6.7490 F   0  0  0  0  0  0  0  0  0  0  0  0
    2.5075   -0.1792    2.1203 N   0  0  0  0  0  0  0  0  0  0  0  0
    3.3901    0.4257    2.7088 O   0  0  0  0  0  0  0  0  0  0  0  0
    2.6926   -0.9336    1.1789 O   0  0  0  0  0  0  0  0  0  0  0  0
   -4.5734    0.6652    4.4003 H   0  0  0  0  0  0  0  0  0  0  0  0
   -3.7889    1.3415    2.9352 H   0  0  0  0  0  0  0  0  0  0  0  0
   -3.9108   -0.4402    3.1515 H   0  0  0  0  0  0  0  0  0  0  0  0
   -2.1285    0.1926    1.7441 H   0  0  0  0  0  0  0  0  0  0  0  0
    0.5494   -2.1814   -0.5181 Au  0  0  0  0  0  0  0  0  0  0  0  0
    1.9126    0.2170    4.6170 H   0  0  0  0  0  0  0  0  0  0  0  0
  1 18  1  0  0  0  0
  1  2  1  0  0  0  0
  3  2  1  0  0  0  0
  3  9  2  0  0  0  0
  4  3  1  0  0  0  0
  5  4  2  0  0  0  0
  5  7  1  0  0  0  0
  6  5  1  0  0  0  0
  7  8  2  0  0  0  0
  8  9  1  0  0  0  0
  8 23  1  0  0  0  0
  9 10  1  0  0  0  0
 10 11  1  0  0  0  0
 11 14  1  0  0  0  0
 11 13  1  0  0  0  0
 12 11  1  0  0  0  0
 15  7  1  0  0  0  0
 15 16  2  0  0  0  0
 17 15  2  0  0  0  0
 19  1  1  0  0  0  0
 20  1  1  0  0  0  0
 21  4  1  0  0  0  0
 22  6  1  0  0  0  0
M  END
