317706303.xyz
 OpenBabel07262113503D
Sc1cc(C(F)F)c(c(c1)F)C(=O)Cl
 18 18  0  0  0  0  0  0  0  0999 V2000
    0.0000    0.0000    0.0000 S   0  0  0  0  0  0  0  0  0  0  0  0
   -0.0000   -0.0000    1.7825 C   0  0  0  0  0  0  0  0  0  0  0  0
   -1.2232    0.0910    2.4665 C   0  0  0  0  0  0  0  0  0  0  0  0
   -1.2637    0.1876    3.8575 C   0  0  0  0  0  0  0  0  0  0  0  0
   -2.6102    0.3023    4.5321 C   0  0  0  0  0  0  0  0  0  0  0  0
   -2.6806   -0.5403    5.5988 F   0  0  0  0  0  0  0  0  0  0  0  0
   -2.8175    1.5614    4.9893 F   0  0  0  0  0  0  0  0  0  0  0  0
   -0.0684    0.1621    4.6010 C   0  0  0  0  0  0  0  0  0  0  0  0
    1.1402    0.0653    3.9012 C   0  0  0  0  0  0  0  0  0  0  0  0
    1.1946    0.0000    2.5150 C   0  0  0  0  0  0  0  0  0  0  0  0
    2.2845    0.0671    4.5885 F   0  0  0  0  0  0  0  0  0  0  0  0
   -0.0581    0.2544    6.0965 C   0  0  0  0  0  0  0  0  0  0  0  0
   -0.4281    1.1719    6.7469 O   0  0  0  0  0  0  0  0  0  0  0  0
    0.5954   -1.2383    6.8539 Cl  0  0  0  0  0  0  0  0  0  0  0  0
    0.6500   -2.1504   -0.5028 Au  0  0  0  0  0  0  0  0  0  0  0  0
   -2.1520    0.0787    1.8933 H   0  0  0  0  0  0  0  0  0  0  0  0
   -3.4287    0.0467    3.8376 H   0  0  0  0  0  0  0  0  0  0  0  0
    2.1646   -0.0526    2.0201 H   0  0  0  0  0  0  0  0  0  0  0  0
  1  2  1  0  0  0  0
  2  3  2  0  0  0  0
  2 10  1  0  0  0  0
  3  4  1  0  0  0  0
  4  5  1  0  0  0  0
  4  8  2  0  0  0  0
  5  7  1  0  0  0  0
  5  6  1  0  0  0  0
  8 12  1  0  0  0  0
  9 11  1  0  0  0  0
  9  8  1  0  0  0  0
 10  9  2  0  0  0  0
 12 13  2  0  0  0  0
 12 14  1  0  0  0  0
 15  1  1  0  0  0  0
 16  3  1  0  0  0  0
 17  5  1  0  0  0  0
 18 10  1  0  0  0  0
M  END
