317716806.xyz
 OpenBabel07262113503D
BrCC(=O)c1c(I)ccc(c1C(F)F)S
 21 21  0  0  0  0  0  0  0  0999 V2000
   -4.6516   -1.6409    5.9507 Br  0  0  0  0  0  0  0  0  0  0  0  0
   -3.0474   -1.5817    4.8637 C   0  0  0  0  0  0  0  0  0  0  0  0
   -2.4090   -0.2072    4.7971 C   0  0  0  0  0  0  0  0  0  0  0  0
   -2.7819    0.7650    5.3935 O   0  0  0  0  0  0  0  0  0  0  0  0
   -1.1421   -0.1698    3.9429 C   0  0  0  0  0  0  0  0  0  0  0  0
    0.1090   -0.1827    4.5785 C   0  0  0  0  0  0  0  0  0  0  0  0
    0.2720   -0.3831    6.6889 I   0  0  0  0  0  0  0  0  0  0  0  0
    1.2942   -0.0976    3.8410 C   0  0  0  0  0  0  0  0  0  0  0  0
    1.2346   -0.0000    2.4560 C   0  0  0  0  0  0  0  0  0  0  0  0
    0.0000    0.0000    1.7886 C   0  0  0  0  0  0  0  0  0  0  0  0
   -1.1947   -0.0878    2.5366 C   0  0  0  0  0  0  0  0  0  0  0  0
   -2.5188   -0.1540    1.8069 C   0  0  0  0  0  0  0  0  0  0  0  0
   -3.5156    0.4132    2.5364 F   0  0  0  0  0  0  0  0  0  0  0  0
   -2.8705   -1.4628    1.6070 F   0  0  0  0  0  0  0  0  0  0  0  0
    0.0000    0.0000    0.0000 S   0  0  0  0  0  0  0  0  0  0  0  0
   -3.2944   -1.9316    3.8535 H   0  0  0  0  0  0  0  0  0  0  0  0
   -2.3157   -2.2806    5.2964 H   0  0  0  0  0  0  0  0  0  0  0  0
    2.2596   -0.1108    4.3487 H   0  0  0  0  0  0  0  0  0  0  0  0
    2.1523    0.0678    1.8697 H   0  0  0  0  0  0  0  0  0  0  0  0
   -2.4741    0.3364    0.8256 H   0  0  0  0  0  0  0  0  0  0  0  0
    0.0665    2.2527   -0.4889 Au  0  0  0  0  0  0  0  0  0  0  0  0
  2 17  1  0  0  0  0
  2  1  1  0  0  0  0
  3  2  1  0  0  0  0
  3  4  2  0  0  0  0
  5  6  1  0  0  0  0
  5  3  1  0  0  0  0
  6  7  1  0  0  0  0
  8 18  1  0  0  0  0
  8  6  2  0  0  0  0
  9  8  1  0  0  0  0
 10  9  2  0  0  0  0
 10 11  1  0  0  0  0
 11  5  2  0  0  0  0
 12 13  1  0  0  0  0
 12 11  1  0  0  0  0
 14 12  1  0  0  0  0
 15 10  1  0  0  0  0
 16  2  1  0  0  0  0
 19  9  1  0  0  0  0
 20 12  1  0  0  0  0
 21 15  1  0  0  0  0
M  END
