31786804.xyz
 OpenBabel07262113503D
O=C1N=C(S)N(C(=O)/C/1=C/c1cc2CCCN3c2c(c1)CCC3)c1cccc(c1)C(F)(F)F
 53 57  0  0  0  0  0  0  0  0999 V2000
    2.4641   -0.3728    4.1220 O   0  0  0  0  0  0  0  0  0  0  0  0
    1.3735   -0.0454    3.6839 C   0  0  0  0  0  0  0  0  0  0  0  0
    1.1717   -0.0000    2.3014 N   0  0  0  0  0  0  0  0  0  0  0  0
    0.0000    0.0000    1.7839 C   0  0  0  0  0  0  0  0  0  0  0  0
    0.0000    0.0000    0.0000 S   0  0  0  0  0  0  0  0  0  0  0  0
   -1.1740   -0.0298    2.5371 N   0  0  0  0  0  0  0  0  0  0  0  0
   -1.1323    0.2881    3.9251 C   0  0  0  0  0  0  0  0  0  0  0  0
   -2.1824    0.4490    4.5208 O   0  0  0  0  0  0  0  0  0  0  0  0
    0.2190    0.3639    4.5214 C   0  0  0  0  0  0  0  0  0  0  0  0
    0.2246    0.7913    5.8359 C   0  0  0  0  0  0  0  0  0  0  0  0
    1.2073    1.0466    6.8479 C   0  0  0  0  0  0  0  0  0  0  0  0
    0.7328    1.6336    8.0504 C   0  0  0  0  0  0  0  0  0  0  0  0
    1.5602    1.9695    9.1058 C   0  0  0  0  0  0  0  0  0  0  0  0
    0.9947    2.5723   10.3724 C   0  0  0  0  0  0  0  0  0  0  0  0
    2.0452    3.4088   11.0953 C   0  0  0  0  0  0  0  0  0  0  0  0
    3.3128    2.5861   11.2797 C   0  0  0  0  0  0  0  0  0  0  0  0
    3.8192    2.0909   10.0081 N   0  0  0  0  0  0  0  0  0  0  0  0
    2.9633    1.7257    8.9943 C   0  0  0  0  0  0  0  0  0  0  0  0
    3.4616    1.1076    7.8065 C   0  0  0  0  0  0  0  0  0  0  0  0
    2.5985    0.7869    6.7737 C   0  0  0  0  0  0  0  0  0  0  0  0
    4.9340    0.7824    7.6901 C   0  0  0  0  0  0  0  0  0  0  0  0
    5.7716    1.7222    8.5505 C   0  0  0  0  0  0  0  0  0  0  0  0
    5.2301    1.7306    9.9729 C   0  0  0  0  0  0  0  0  0  0  0  0
   -2.4475   -0.3421    1.9742 C   0  0  0  0  0  0  0  0  0  0  0  0
   -2.7154   -1.6443    1.5496 C   0  0  0  0  0  0  0  0  0  0  0  0
   -3.9182   -1.9312    0.8996 C   0  0  0  0  0  0  0  0  0  0  0  0
   -4.8450   -0.9173    0.6558 C   0  0  0  0  0  0  0  0  0  0  0  0
   -4.5778    0.3827    1.1023 C   0  0  0  0  0  0  0  0  0  0  0  0
   -3.3945    0.6693    1.7908 C   0  0  0  0  0  0  0  0  0  0  0  0
   -5.4671    1.5281    0.7052 C   0  0  0  0  0  0  0  0  0  0  0  0
   -5.5913    2.4445    1.6729 F   0  0  0  0  0  0  0  0  0  0  0  0
   -6.6936    1.1335    0.3437 F   0  0  0  0  0  0  0  0  0  0  0  0
   -4.9296    2.1745   -0.3713 F   0  0  0  0  0  0  0  0  0  0  0  0
   -1.9248    1.0912   -0.6917 Au  0  0  0  0  0  0  0  0  0  0  0  0
   -0.7923    1.0219    6.1729 H   0  0  0  0  0  0  0  0  0  0  0  0
   -0.3374    1.8387    8.1450 H   0  0  0  0  0  0  0  0  0  0  0  0
    0.6508    1.7649   11.0451 H   0  0  0  0  0  0  0  0  0  0  0  0
    0.1045    3.1752   10.1358 H   0  0  0  0  0  0  0  0  0  0  0  0
    2.2829    4.3094   10.5047 H   0  0  0  0  0  0  0  0  0  0  0  0
    1.6793    3.7452   12.0775 H   0  0  0  0  0  0  0  0  0  0  0  0
    4.1045    3.1971   11.7411 H   0  0  0  0  0  0  0  0  0  0  0  0
    3.1184    1.7431   11.9751 H   0  0  0  0  0  0  0  0  0  0  0  0
    2.9849    0.3047    5.8775 H   0  0  0  0  0  0  0  0  0  0  0  0
    5.1078   -0.2597    8.0164 H   0  0  0  0  0  0  0  0  0  0  0  0
    5.2413    0.8279    6.6348 H   0  0  0  0  0  0  0  0  0  0  0  0
    6.8288    1.4159    8.5628 H   0  0  0  0  0  0  0  0  0  0  0  0
    5.7297    2.7461    8.1424 H   0  0  0  0  0  0  0  0  0  0  0  0
    5.7775    2.4604   10.5905 H   0  0  0  0  0  0  0  0  0  0  0  0
    5.3869    0.7377   10.4430 H   0  0  0  0  0  0  0  0  0  0  0  0
   -1.9646   -2.4201    1.7056 H   0  0  0  0  0  0  0  0  0  0  0  0
   -4.1239   -2.9490    0.5627 H   0  0  0  0  0  0  0  0  0  0  0  0
   -5.7707   -1.1262    0.1183 H   0  0  0  0  0  0  0  0  0  0  0  0
   -3.1899    1.6744    2.1592 H   0  0  0  0  0  0  0  0  0  0  0  0
  2  1  2  0  0  0  0
  2  9  1  0  0  0  0
  3  2  2  0  0  0  0
  4  3  2  0  0  0  0
  4  6  1  0  0  0  0
  5  4  1  0  0  0  0
  6  7  1  0  0  0  0
  7  8  2  0  0  0  0
  7  9  1  0  0  0  0
  9 10  2  0  0  0  0
 10 35  1  0  0  0  0
 10 11  1  0  0  0  0
 11 12  1  0  0  0  0
 12 36  1  0  0  0  0
 12 13  2  0  0  0  0
 13 14  1  0  0  0  0
 14 37  1  0  0  0  0
 14 15  1  0  0  0  0
 15 16  1  0  0  0  0
 15 40  1  0  0  0  0
 16 41  1  0  0  0  0
 16 42  1  0  0  0  0
 17 16  1  0  0  0  0
 18 13  1  0  0  0  0
 18 17  1  0  0  0  0
 19 18  2  0  0  0  0
 20 11  2  0  0  0  0
 20 19  1  0  0  0  0
 21 19  1  0  0  0  0
 21 44  1  0  0  0  0
 21 22  1  0  0  0  0
 22 46  1  0  0  0  0
 22 23  1  0  0  0  0
 23 17  1  0  0  0  0
 23 49  1  0  0  0  0
 23 48  1  0  0  0  0
 24  6  1  0  0  0  0
 25 50  1  0  0  0  0
 25 24  2  0  0  0  0
 26 25  1  0  0  0  0
 27 26  2  0  0  0  0
 27 28  1  0  0  0  0
 28 29  2  0  0  0  0
 29 24  1  0  0  0  0
 29 53  1  0  0  0  0
 30 28  1  0  0  0  0
 30 31  1  0  0  0  0
 32 30  1  0  0  0  0
 33 30  1  0  0  0  0
 34  5  1  0  0  0  0
 38 14  1  0  0  0  0
 39 15  1  0  0  0  0
 43 20  1  0  0  0  0
 45 21  1  0  0  0  0
 47 22  1  0  0  0  0
 51 26  1  0  0  0  0
 52 27  1  0  0  0  0
M  END
