31793540.xyz
 OpenBabel07262113503D
Clc1cccc(c1)N1C(=NC(=O)/C(=C\c2ccc(cc2)N2CCCCCC2)/C1=O)S
 52 55  0  0  0  0  0  0  0  0999 V2000
    4.1295   -3.5411    0.2671 Cl  0  0  0  0  0  0  0  0  0  0  0  0
    3.8830   -1.9414    0.9159 C   0  0  0  0  0  0  0  0  0  0  0  0
    4.9053   -0.9942    0.8261 C   0  0  0  0  0  0  0  0  0  0  0  0
    4.6944    0.2850    1.3517 C   0  0  0  0  0  0  0  0  0  0  0  0
    3.4723    0.6230    1.9399 C   0  0  0  0  0  0  0  0  0  0  0  0
    2.4507   -0.3355    1.9975 C   0  0  0  0  0  0  0  0  0  0  0  0
    2.6582   -1.6266    1.5097 C   0  0  0  0  0  0  0  0  0  0  0  0
    1.1711    0.0000    2.5374 N   0  0  0  0  0  0  0  0  0  0  0  0
   -0.0000   -0.0000    1.7808 C   0  0  0  0  0  0  0  0  0  0  0  0
   -1.1772   -0.0133    2.2862 N   0  0  0  0  0  0  0  0  0  0  0  0
   -1.3951   -0.0425    3.6651 C   0  0  0  0  0  0  0  0  0  0  0  0
   -2.4867   -0.3724    4.0976 O   0  0  0  0  0  0  0  0  0  0  0  0
   -0.2518    0.3872    4.5083 C   0  0  0  0  0  0  0  0  0  0  0  0
   -0.2756    0.8214    5.8187 C   0  0  0  0  0  0  0  0  0  0  0  0
   -1.2715    1.0672    6.8220 C   0  0  0  0  0  0  0  0  0  0  0  0
   -0.8167    1.6629    8.0291 C   0  0  0  0  0  0  0  0  0  0  0  0
   -1.6677    1.9851    9.0672 C   0  0  0  0  0  0  0  0  0  0  0  0
   -3.0616    1.7131    8.9779 C   0  0  0  0  0  0  0  0  0  0  0  0
   -3.5220    1.1101    7.7741 C   0  0  0  0  0  0  0  0  0  0  0  0
   -2.6620    0.7934    6.7403 C   0  0  0  0  0  0  0  0  0  0  0  0
   -3.9104    2.0060   10.0141 N   0  0  0  0  0  0  0  0  0  0  0  0
   -3.4729    2.8132   11.1457 C   0  0  0  0  0  0  0  0  0  0  0  0
   -3.3156    4.3163   10.8382 C   0  0  0  0  0  0  0  0  0  0  0  0
   -4.2886    4.8592    9.7800 C   0  0  0  0  0  0  0  0  0  0  0  0
   -5.7543    4.4028    9.9003 C   0  0  0  0  0  0  0  0  0  0  0  0
   -6.0517    3.0497    9.2379 C   0  0  0  0  0  0  0  0  0  0  0  0
   -5.3566    1.8518    9.8918 C   0  0  0  0  0  0  0  0  0  0  0  0
    1.1083    0.3226    3.9257 C   0  0  0  0  0  0  0  0  0  0  0  0
    2.1449    0.4979    4.5388 O   0  0  0  0  0  0  0  0  0  0  0  0
    0.0000    0.0000    0.0000 S   0  0  0  0  0  0  0  0  0  0  0  0
    5.8534   -1.2625    0.3587 H   0  0  0  0  0  0  0  0  0  0  0  0
    5.4962    1.0252    1.3052 H   0  0  0  0  0  0  0  0  0  0  0  0
    3.3041    1.6131    2.3615 H   0  0  0  0  0  0  0  0  0  0  0  0
    1.8616   -2.3680    1.5591 H   0  0  0  0  0  0  0  0  0  0  0  0
    0.7348    1.0662    6.1652 H   0  0  0  0  0  0  0  0  0  0  0  0
    0.2483    1.8853    8.1356 H   0  0  0  0  0  0  0  0  0  0  0  0
   -1.2526    2.4492    9.9595 H   0  0  0  0  0  0  0  0  0  0  0  0
   -4.5783    0.8813    7.6458 H   0  0  0  0  0  0  0  0  0  0  0  0
   -3.0420    0.3132    5.8408 H   0  0  0  0  0  0  0  0  0  0  0  0
   -2.5379    2.4058   11.5602 H   0  0  0  0  0  0  0  0  0  0  0  0
   -4.2308    2.6785   11.9297 H   0  0  0  0  0  0  0  0  0  0  0  0
   -2.2882    4.5293   10.5024 H   0  0  0  0  0  0  0  0  0  0  0  0
   -3.4456    4.8638   11.7874 H   0  0  0  0  0  0  0  0  0  0  0  0
   -4.2453    5.9596    9.8215 H   0  0  0  0  0  0  0  0  0  0  0  0
   -3.9206    4.5850    8.7765 H   0  0  0  0  0  0  0  0  0  0  0  0
   -6.3966    5.1583    9.4197 H   0  0  0  0  0  0  0  0  0  0  0  0
   -6.0616    4.3823   10.9626 H   0  0  0  0  0  0  0  0  0  0  0  0
   -7.1388    2.8599    9.2470 H   0  0  0  0  0  0  0  0  0  0  0  0
   -5.7535    3.1027    8.1767 H   0  0  0  0  0  0  0  0  0  0  0  0
   -5.5851    0.9276    9.3438 H   0  0  0  0  0  0  0  0  0  0  0  0
   -5.7521    1.7075   10.9099 H   0  0  0  0  0  0  0  0  0  0  0  0
    1.9858    0.9795   -0.6745 Au  0  0  0  0  0  0  0  0  0  0  0  0
  1  2  1  0  0  0  0
  2  7  1  0  0  0  0
  3  2  2  0  0  0  0
  3  4  1  0  0  0  0
  4  5  2  0  0  0  0
  5  6  1  0  0  0  0
  5 33  1  0  0  0  0
  6  8  1  0  0  0  0
  7 34  1  0  0  0  0
  7  6  2  0  0  0  0
  8 28  1  0  0  0  0
  9 10  2  0  0  0  0
  9  8  1  0  0  0  0
 10 11  2  0  0  0  0
 11 12  2  0  0  0  0
 11 13  1  0  0  0  0
 13 14  2  0  0  0  0
 14 35  1  0  0  0  0
 14 15  1  0  0  0  0
 15 16  1  0  0  0  0
 16 36  1  0  0  0  0
 16 17  2  0  0  0  0
 17 37  1  0  0  0  0
 18 17  1  0  0  0  0
 18 21  1  0  0  0  0
 19 18  2  0  0  0  0
 20 15  2  0  0  0  0
 20 19  1  0  0  0  0
 21 22  1  0  0  0  0
 22 40  1  0  0  0  0
 22 41  1  0  0  0  0
 23 22  1  0  0  0  0
 23 43  1  0  0  0  0
 24 44  1  0  0  0  0
 24 25  1  0  0  0  0
 24 23  1  0  0  0  0
 25 47  1  0  0  0  0
 26 48  1  0  0  0  0
 26 27  1  0  0  0  0
 26 25  1  0  0  0  0
 27 21  1  0  0  0  0
 27 51  1  0  0  0  0
 28 13  1  0  0  0  0
 28 29  2  0  0  0  0
 30  9  1  0  0  0  0
 31  3  1  0  0  0  0
 32  4  1  0  0  0  0
 38 19  1  0  0  0  0
 39 20  1  0  0  0  0
 42 23  1  0  0  0  0
 45 24  1  0  0  0  0
 46 25  1  0  0  0  0
 49 26  1  0  0  0  0
 50 27  1  0  0  0  0
 52 30  1  0  0  0  0
M  END
