31793482.xyz
 OpenBabel07262113503D
O=C1N=C(S)N(C(=O)/C/1=C/c1ccc(cc1)N1CCCCCC1)c1cccc2c1cccc2
 58 62  0  0  0  0  0  0  0  0999 V2000
    2.1920   -0.0187    4.4163 O   0  0  0  0  0  0  0  0  0  0  0  0
    1.1124   -0.0084    3.8422 C   0  0  0  0  0  0  0  0  0  0  0  0
    1.1013   -0.0000    2.4462 N   0  0  0  0  0  0  0  0  0  0  0  0
    0.0000    0.0000    1.7728 C   0  0  0  0  0  0  0  0  0  0  0  0
    0.0000    0.0000    0.0000 S   0  0  0  0  0  0  0  0  0  0  0  0
   -1.2633   -0.0035    2.3322 N   0  0  0  0  0  0  0  0  0  0  0  0
   -1.4436   -0.0014    3.7376 C   0  0  0  0  0  0  0  0  0  0  0  0
   -2.5759   -0.0037    4.1817 O   0  0  0  0  0  0  0  0  0  0  0  0
   -0.1967   -0.0053    4.5431 C   0  0  0  0  0  0  0  0  0  0  0  0
   -0.4330   -0.0061    5.9043 C   0  0  0  0  0  0  0  0  0  0  0  0
    0.3324   -0.0101    7.1192 C   0  0  0  0  0  0  0  0  0  0  0  0
    1.7452   -0.0155    7.2561 C   0  0  0  0  0  0  0  0  0  0  0  0
    2.3497   -0.0113    8.4987 C   0  0  0  0  0  0  0  0  0  0  0  0
    1.5949   -0.0106    9.7044 C   0  0  0  0  0  0  0  0  0  0  0  0
    0.1783    0.0038    9.5740 C   0  0  0  0  0  0  0  0  0  0  0  0
   -0.4158   -0.0007    8.3276 C   0  0  0  0  0  0  0  0  0  0  0  0
    2.2096   -0.0323   10.9306 N   0  0  0  0  0  0  0  0  0  0  0  0
    1.4547    0.0960   12.1720 C   0  0  0  0  0  0  0  0  0  0  0  0
    1.1536    1.5454   12.5663 C   0  0  0  0  0  0  0  0  0  0  0  0
    2.3868    2.4571   12.6432 C   0  0  0  0  0  0  0  0  0  0  0  0
    3.0818    2.6984   11.2906 C   0  0  0  0  0  0  0  0  0  0  0  0
    4.1011    1.6372   10.8475 C   0  0  0  0  0  0  0  0  0  0  0  0
    3.6459    0.1795   11.0607 C   0  0  0  0  0  0  0  0  0  0  0  0
   -2.4393   -0.0530    1.5059 C   0  0  0  0  0  0  0  0  0  0  0  0
   -3.0081    1.1206    1.0595 C   0  0  0  0  0  0  0  0  0  0  0  0
   -4.1598    1.0860    0.2408 C   0  0  0  0  0  0  0  0  0  0  0  0
   -4.7244   -0.1218   -0.1082 C   0  0  0  0  0  0  0  0  0  0  0  0
   -4.1671   -1.3487    0.3450 C   0  0  0  0  0  0  0  0  0  0  0  0
   -2.9988   -1.3227    1.1750 C   0  0  0  0  0  0  0  0  0  0  0  0
   -2.4430   -2.5493    1.6249 C   0  0  0  0  0  0  0  0  0  0  0  0
   -3.0185   -3.7509    1.2714 C   0  0  0  0  0  0  0  0  0  0  0  0
   -4.1740   -3.7817    0.4514 C   0  0  0  0  0  0  0  0  0  0  0  0
   -4.7336   -2.6065   -0.0007 C   0  0  0  0  0  0  0  0  0  0  0  0
    2.3073   -0.0727   -0.2525 Au  0  0  0  0  0  0  0  0  0  0  0  0
   -1.5112   -0.0025    6.1009 H   0  0  0  0  0  0  0  0  0  0  0  0
    2.3471   -0.0202    6.3500 H   0  0  0  0  0  0  0  0  0  0  0  0
    3.4374   -0.0109    8.5375 H   0  0  0  0  0  0  0  0  0  0  0  0
   -0.4593    0.0252   10.4555 H   0  0  0  0  0  0  0  0  0  0  0  0
   -1.5072    0.0105    8.2679 H   0  0  0  0  0  0  0  0  0  0  0  0
    0.5248   -0.4851   12.1013 H   0  0  0  0  0  0  0  0  0  0  0  0
    2.0522   -0.3830   12.9641 H   0  0  0  0  0  0  0  0  0  0  0  0
    0.4424    1.9752   11.8401 H   0  0  0  0  0  0  0  0  0  0  0  0
    0.6357    1.5335   13.5409 H   0  0  0  0  0  0  0  0  0  0  0  0
    3.1100    2.0572   13.3783 H   0  0  0  0  0  0  0  0  0  0  0  0
    2.0592    3.4288   13.0471 H   0  0  0  0  0  0  0  0  0  0  0  0
    2.3047    2.7989   10.5135 H   0  0  0  0  0  0  0  0  0  0  0  0
    3.6020    3.6695   11.3167 H   0  0  0  0  0  0  0  0  0  0  0  0
    5.0491    1.7716   11.3962 H   0  0  0  0  0  0  0  0  0  0  0  0
    4.3366    1.8088    9.7853 H   0  0  0  0  0  0  0  0  0  0  0  0
    3.9120   -0.1415   12.0774 H   0  0  0  0  0  0  0  0  0  0  0  0
    4.1889   -0.4951   10.3812 H   0  0  0  0  0  0  0  0  0  0  0  0
   -2.5542    2.0718    1.3415 H   0  0  0  0  0  0  0  0  0  0  0  0
   -4.5976    2.0226   -0.1106 H   0  0  0  0  0  0  0  0  0  0  0  0
   -5.6150   -0.1535   -0.7409 H   0  0  0  0  0  0  0  0  0  0  0  0
   -1.5525   -2.5312    2.2544 H   0  0  0  0  0  0  0  0  0  0  0  0
   -2.5816   -4.6876    1.6250 H   0  0  0  0  0  0  0  0  0  0  0  0
   -4.6188   -4.7416    0.1791 H   0  0  0  0  0  0  0  0  0  0  0  0
   -5.6244   -2.6233   -0.6339 H   0  0  0  0  0  0  0  0  0  0  0  0
  2  1  2  0  0  0  0
  2  9  1  0  0  0  0
  3  2  2  0  0  0  0
  4  6  1  0  0  0  0
  4  3  2  0  0  0  0
  5  4  1  0  0  0  0
  6  7  1  0  0  0  0
  7  8  2  0  0  0  0
  7  9  1  0  0  0  0
  9 10  2  0  0  0  0
 10 35  1  0  0  0  0
 10 11  1  0  0  0  0
 11 12  2  0  0  0  0
 11 16  1  0  0  0  0
 12 13  1  0  0  0  0
 13 37  1  0  0  0  0
 13 14  2  0  0  0  0
 14 17  1  0  0  0  0
 15 14  1  0  0  0  0
 15 38  1  0  0  0  0
 16 15  2  0  0  0  0
 17 23  1  0  0  0  0
 17 18  1  0  0  0  0
 18 19  1  0  0  0  0
 18 41  1  0  0  0  0
 19 20  1  0  0  0  0
 19 43  1  0  0  0  0
 20 45  1  0  0  0  0
 20 44  1  0  0  0  0
 21 47  1  0  0  0  0
 21 20  1  0  0  0  0
 22 23  1  0  0  0  0
 22 21  1  0  0  0  0
 22 48  1  0  0  0  0
 23 50  1  0  0  0  0
 24  6  1  0  0  0  0
 25 52  1  0  0  0  0
 25 24  2  0  0  0  0
 26 25  1  0  0  0  0
 27 26  2  0  0  0  0
 27 28  1  0  0  0  0
 28 29  1  0  0  0  0
 29 24  1  0  0  0  0
 29 30  2  0  0  0  0
 30 55  1  0  0  0  0
 31 30  1  0  0  0  0
 31 56  1  0  0  0  0
 32 31  2  0  0  0  0
 33 28  2  0  0  0  0
 33 32  1  0  0  0  0
 34  5  1  0  0  0  0
 36 12  1  0  0  0  0
 39 16  1  0  0  0  0
 40 18  1  0  0  0  0
 42 19  1  0  0  0  0
 46 21  1  0  0  0  0
 49 22  1  0  0  0  0
 51 23  1  0  0  0  0
 53 26  1  0  0  0  0
 54 27  1  0  0  0  0
 57 32  1  0  0  0  0
 58 33  1  0  0  0  0
M  END
