33501491.xyz
 OpenBabel07262113513D
Clc1ccc(cc1)C(=O)Nc1ccccc1S
 27 28  0  0  0  0  0  0  0  0999 V2000
    8.0600   -0.8345   -1.9000 Cl  0  0  0  0  0  0  0  0  0  0  0  0
    6.7834   -0.6594   -0.7252 C   0  0  0  0  0  0  0  0  0  0  0  0
    7.1002   -0.3255    0.5956 C   0  0  0  0  0  0  0  0  0  0  0  0
    6.0743   -0.1902    1.5270 C   0  0  0  0  0  0  0  0  0  0  0  0
    4.7335   -0.3724    1.1558 C   0  0  0  0  0  0  0  0  0  0  0  0
    4.4386   -0.7180   -0.1728 C   0  0  0  0  0  0  0  0  0  0  0  0
    5.4564   -0.8611   -1.1150 C   0  0  0  0  0  0  0  0  0  0  0  0
    3.7002   -0.2150    2.2366 C   0  0  0  0  0  0  0  0  0  0  0  0
    4.0117   -0.1963    3.4161 O   0  0  0  0  0  0  0  0  0  0  0  0
    2.4061   -0.0915    1.7825 N   0  0  0  0  0  0  0  0  0  0  0  0
    1.2215   -0.0000    2.5076 C   0  0  0  0  0  0  0  0  0  0  0  0
    1.1755    0.0685    3.9108 C   0  0  0  0  0  0  0  0  0  0  0  0
   -0.0539    0.1416    4.5641 C   0  0  0  0  0  0  0  0  0  0  0  0
   -1.2571    0.1443    3.8487 C   0  0  0  0  0  0  0  0  0  0  0  0
   -1.2236    0.0652    2.4594 C   0  0  0  0  0  0  0  0  0  0  0  0
   -0.0000    0.0000    1.7737 C   0  0  0  0  0  0  0  0  0  0  0  0
    0.0000    0.0000    0.0000 S   0  0  0  0  0  0  0  0  0  0  0  0
    8.1422   -0.1770    0.8817 H   0  0  0  0  0  0  0  0  0  0  0  0
    6.2909    0.0593    2.5668 H   0  0  0  0  0  0  0  0  0  0  0  0
    3.4116   -0.9061   -0.4949 H   0  0  0  0  0  0  0  0  0  0  0  0
    5.2288   -1.1340   -2.1460 H   0  0  0  0  0  0  0  0  0  0  0  0
    2.2612   -0.0207    0.7782 H   0  0  0  0  0  0  0  0  0  0  0  0
    2.1116    0.0623    4.4630 H   0  0  0  0  0  0  0  0  0  0  0  0
   -0.0691    0.1964    5.6553 H   0  0  0  0  0  0  0  0  0  0  0  0
   -2.2139    0.2020    4.3716 H   0  0  0  0  0  0  0  0  0  0  0  0
   -2.1464    0.0534    1.8766 H   0  0  0  0  0  0  0  0  0  0  0  0
    0.5152   -2.1971   -0.5323 Au  0  0  0  0  0  0  0  0  0  0  0  0
  1  2  1  0  0  0  0
  2  3  1  0  0  0  0
  3 18  1  0  0  0  0
  3  4  2  0  0  0  0
  4 19  1  0  0  0  0
  5  4  1  0  0  0  0
  5  8  1  0  0  0  0
  6  5  2  0  0  0  0
  7  2  2  0  0  0  0
  7  6  1  0  0  0  0
  8  9  2  0  0  0  0
 10  8  1  0  0  0  0
 10 11  1  0  0  0  0
 11 12  2  0  0  0  0
 12 23  1  0  0  0  0
 12 13  1  0  0  0  0
 13 24  1  0  0  0  0
 14 25  1  0  0  0  0
 14 13  2  0  0  0  0
 15 14  1  0  0  0  0
 16 15  2  0  0  0  0
 16 11  1  0  0  0  0
 17 16  1  0  0  0  0
 20  6  1  0  0  0  0
 21  7  1  0  0  0  0
 22 10  1  0  0  0  0
 26 15  1  0  0  0  0
 27 17  1  0  0  0  0
M  END
