33563517.xyz
 OpenBabel07262113513D
CCC1(N=C(N(N1)c1ccc(cc1)Cl)S)c1ccccc1
 37 39  0  0  1  0  0  0  0  0999 V2000
   -2.1671    2.2268    4.1747 C   0  0  0  0  0  0  0  0  0  0  0  0
   -0.7260    1.7325    4.2321 C   0  0  0  0  0  0  0  0  0  0  0  0
   -0.5618    0.2356    3.8859 C   0  0  1  0  0  0  0  0  0  0  0  0
   -1.0425    0.0138    2.5122 N   0  0  0  0  0  0  0  0  0  0  0  0
    0.0000   -0.0000    1.7632 C   0  0  0  0  0  0  0  0  0  0  0  0
    1.2142    0.0000    2.4609 N   0  0  0  0  0  0  0  0  0  0  0  0
    0.8945   -0.0949    3.8439 N   0  0  0  0  0  0  0  0  0  0  0  0
    2.4691    0.5135    2.0824 C   0  0  0  0  0  0  0  0  0  0  0  0
    3.0371    0.1853    0.8408 C   0  0  0  0  0  0  0  0  0  0  0  0
    4.2672    0.7227    0.4617 C   0  0  0  0  0  0  0  0  0  0  0  0
    4.9575    1.5597    1.3397 C   0  0  0  0  0  0  0  0  0  0  0  0
    4.4238    1.8585    2.5971 C   0  0  0  0  0  0  0  0  0  0  0  0
    3.1862    1.3383    2.9666 C   0  0  0  0  0  0  0  0  0  0  0  0
    6.5080    2.2203    0.8748 Cl  0  0  0  0  0  0  0  0  0  0  0  0
    0.0000    0.0000    0.0000 S   0  0  0  0  0  0  0  0  0  0  0  0
   -1.2515   -0.6562    4.9019 C   0  0  0  0  0  0  0  0  0  0  0  0
   -0.7669   -0.7139    6.2178 C   0  0  0  0  0  0  0  0  0  0  0  0
   -1.3897   -1.5266    7.1672 C   0  0  0  0  0  0  0  0  0  0  0  0
   -2.5107   -2.2842    6.8143 C   0  0  0  0  0  0  0  0  0  0  0  0
   -2.9984   -2.2279    5.5063 C   0  0  0  0  0  0  0  0  0  0  0  0
   -2.3709   -1.4206    4.5533 C   0  0  0  0  0  0  0  0  0  0  0  0
   -2.2228    3.3001    4.4133 H   0  0  0  0  0  0  0  0  0  0  0  0
   -2.5917    2.0744    3.1715 H   0  0  0  0  0  0  0  0  0  0  0  0
   -2.8024    1.6863    4.8937 H   0  0  0  0  0  0  0  0  0  0  0  0
   -0.2975    1.8940    5.2343 H   0  0  0  0  0  0  0  0  0  0  0  0
   -0.0969    2.2987    3.5244 H   0  0  0  0  0  0  0  0  0  0  0  0
    1.0070   -1.0804    4.0986 H   0  0  0  0  0  0  0  0  0  0  0  0
    2.5284   -0.5119    0.1747 H   0  0  0  0  0  0  0  0  0  0  0  0
    4.7027    0.4725   -0.5065 H   0  0  0  0  0  0  0  0  0  0  0  0
    4.9772    2.5047    3.2800 H   0  0  0  0  0  0  0  0  0  0  0  0
    2.7576    1.5569    3.9437 H   0  0  0  0  0  0  0  0  0  0  0  0
   -2.2649    0.3591   -0.3049 Au  0  0  0  0  0  0  0  0  0  0  0  0
    0.1076   -0.1224    6.4991 H   0  0  0  0  0  0  0  0  0  0  0  0
   -1.0000   -1.5665    8.1873 H   0  0  0  0  0  0  0  0  0  0  0  0
   -3.0013   -2.9172    7.5575 H   0  0  0  0  0  0  0  0  0  0  0  0
   -3.8731   -2.8189    5.2235 H   0  0  0  0  0  0  0  0  0  0  0  0
   -2.7354   -1.3728    3.5270 H   0  0  0  0  0  0  0  0  0  0  0  0
  1  2  1  0  0  0  0
  1 22  1  0  0  0  0
  1 24  1  0  0  0  0
  2 25  1  0  0  0  0
  3  2  1  1  0  0  0
  3 16  1  0  0  0  0
  4  3  1  0  0  0  0
  5  6  1  0  0  0  0
  5  4  2  0  0  0  0
  6  7  1  0  0  0  0
  7  3  1  0  0  0  0
  7 27  1  0  0  0  0
  8  6  1  0  0  0  0
  8 13  2  0  0  0  0
  9  8  1  0  0  0  0
 10  9  2  0  0  0  0
 10 11  1  0  0  0  0
 11 12  2  0  0  0  0
 12 13  1  0  0  0  0
 12 30  1  0  0  0  0
 13 31  1  0  0  0  0
 14 11  1  0  0  0  0
 15  5  1  0  0  0  0
 16 17  1  0  0  0  0
 17 33  1  0  0  0  0
 17 18  2  0  0  0  0
 18 34  1  0  0  0  0
 19 18  1  0  0  0  0
 19 35  1  0  0  0  0
 20 19  2  0  0  0  0
 21 16  2  0  0  0  0
 21 20  1  0  0  0  0
 23  1  1  0  0  0  0
 26  2  1  0  0  0  0
 28  9  1  0  0  0  0
 29 10  1  0  0  0  0
 32 15  1  0  0  0  0
 36 20  1  0  0  0  0
 37 21  1  0  0  0  0
M  END
