34301-54-7.xyz
 OpenBabel08132117233D
S[C@]12[CH2][C@H]3[CH2][C@@H]([CH2]2)[CH2][C@@H]([CH2]1)[CH2]3
 27 29  0  0  1  0  0  0  0  0999 V2000
    0.0000    0.0000    1.8461 C   0  0  1  0  0  0  0  0  0  0  0  0
    1.5002    0.0000    2.2299 C   0  0  0  0  0  0  0  0  0  0  0  0
   -0.6657   -1.2566    2.4328 C   0  0  0  0  0  0  0  0  0  0  0  0
   -0.6656    1.2566    2.4327 C   0  0  0  0  0  0  0  0  0  0  0  0
    0.0000    0.0000    0.0000 S   0  0  0  0  0  0  0  0  0  0  0  0
    1.6391    0.0002    3.7652 C   0  0  2  0  0  0  0  0  0  0  0  0
   -0.5261   -1.2568    3.9665 C   0  0  1  0  0  0  0  0  0  0  0  0
   -0.5261    1.2570    3.9664 C   0  0  2  0  0  0  0  0  0  0  0  0
    0.9658   -1.2564    4.3419 C   0  0  0  0  0  0  0  0  0  0  0  0
    0.9658    1.2566    4.3419 C   0  0  0  0  0  0  0  0  0  0  0  0
   -1.2014    0.0001    4.5424 C   0  0  0  0  0  0  0  0  0  0  0  0
    2.7116    0.0002    4.0214 H   0  0  0  0  0  0  0  0  0  0  0  0
   -1.0113   -2.1600    4.3722 H   0  0  0  0  0  0  0  0  0  0  0  0
   -1.0114    2.1602    4.3721 H   0  0  0  0  0  0  0  0  0  0  0  0
    1.9931   -0.8883    1.8028 H   0  0  0  0  0  0  0  0  0  0  0  0
    1.9931    0.8882    1.8025 H   0  0  0  0  0  0  0  0  0  0  0  0
   -1.7301   -1.2700    2.1443 H   0  0  0  0  0  0  0  0  0  0  0  0
   -0.2024   -2.1559    1.9976 H   0  0  0  0  0  0  0  0  0  0  0  0
   -0.2022    2.1559    1.9975 H   0  0  0  0  0  0  0  0  0  0  0  0
   -1.7300    1.2703    2.1442 H   0  0  0  0  0  0  0  0  0  0  0  0
   -2.2287   -0.0044   -0.5488 Au  0  0  0  0  0  0  0  0  0  0  0  0
    1.0811   -1.2764    5.4388 H   0  0  0  0  0  0  0  0  0  0  0  0
    1.4557   -2.1633    3.9491 H   0  0  0  0  0  0  0  0  0  0  0  0
    1.0810    1.2767    5.4388 H   0  0  0  0  0  0  0  0  0  0  0  0
    1.4556    2.1636    3.9490 H   0  0  0  0  0  0  0  0  0  0  0  0
   -2.2761    0.0001    4.2925 H   0  0  0  0  0  0  0  0  0  0  0  0
   -1.1264    0.0001    5.6430 H   0  0  0  0  0  0  0  0  0  0  0  0
  1  5  1  6  0  0  0
  1  2  1  0  0  0  0
  1  4  1  0  0  0  0
  1  3  1  0  0  0  0
  2  6  1  0  0  0  0
  3  7  1  0  0  0  0
  4  8  1  0  0  0  0
  6 12  1  1  0  0  0
  6 10  1  0  0  0  0
  6  9  1  0  0  0  0
  7  9  1  0  0  0  0
  7 13  1  1  0  0  0
  7 11  1  0  0  0  0
  8 10  1  0  0  0  0
  8 14  1  1  0  0  0
  8 11  1  0  0  0  0
  9 22  1  0  0  0  0
 10 24  1  0  0  0  0
 11 27  1  0  0  0  0
 15  2  1  0  0  0  0
 16  2  1  0  0  0  0
 17  3  1  0  0  0  0
 18  3  1  0  0  0  0
 19  4  1  0  0  0  0
 20  4  1  0  0  0  0
 21  5  1  0  0  0  0
 23  9  1  0  0  0  0
 25 10  1  0  0  0  0
 26 11  1  0  0  0  0
M  END
