35740759.xyz
 OpenBabel07262113513D
O=C(c1ccc2c(c1)nc(n(c2=O)C)S)NC(c1ccccc1)(C)C
 44 46  0  0  1  0  0  0  0  0999 V2000
   -3.4809   -0.4501    7.9351 O   0  0  0  0  0  0  0  0  0  0  0  0
   -3.4923   -0.0261    6.7902 C   0  0  0  0  0  0  0  0  0  0  0  0
   -2.2390   -0.0063    5.9500 C   0  0  0  0  0  0  0  0  0  0  0  0
   -1.0042   -0.0390    6.6349 C   0  0  0  0  0  0  0  0  0  0  0  0
    0.1845   -0.0312    5.9250 C   0  0  0  0  0  0  0  0  0  0  0  0
    0.1665   -0.0099    4.5188 C   0  0  2  0  0  0  0  0  0  0  0  0
   -1.0607   -0.0009    3.8191 C   0  0  0  0  0  0  0  0  0  0  0  0
   -2.2624    0.0004    4.5584 C   0  0  0  0  0  0  0  0  0  0  0  0
   -1.1138    0.0003    2.4434 N   0  0  0  0  0  0  0  0  0  0  0  0
    0.0000    0.0000    1.7776 C   0  0  0  0  0  0  0  0  0  0  0  0
    1.2557   -0.0000    2.3559 N   0  0  0  0  0  0  0  0  0  0  0  0
    1.4235   -0.0054    3.7661 C   0  0  0  0  0  0  0  0  0  0  0  0
    2.5349   -0.0065    4.2626 O   0  0  0  0  0  0  0  0  0  0  0  0
    2.4689    0.0021    1.5395 C   0  0  0  0  0  0  0  0  0  0  0  0
    0.0000    0.0000    0.0000 S   0  0  0  0  0  0  0  0  0  0  0  0
   -4.6168    0.4520    6.1818 N   0  0  0  0  0  0  0  0  0  0  0  0
   -5.9393    0.4947    6.8243 C   0  0  0  0  0  0  0  0  0  0  0  0
   -6.3791   -0.9310    7.1932 C   0  0  0  0  0  0  0  0  0  0  0  0
   -6.1214   -1.9857    6.3047 C   0  0  0  0  0  0  0  0  0  0  0  0
   -6.5643   -3.2803    6.5748 C   0  0  0  0  0  0  0  0  0  0  0  0
   -7.2805   -3.5475    7.7452 C   0  0  0  0  0  0  0  0  0  0  0  0
   -7.5428   -2.5068    8.6369 C   0  0  0  0  0  0  0  0  0  0  0  0
   -7.0949   -1.2108    8.3632 C   0  0  0  0  0  0  0  0  0  0  0  0
   -5.8977    1.4433    8.0340 C   0  0  0  0  0  0  0  0  0  0  0  0
   -6.9191    1.0472    5.7733 C   0  0  0  0  0  0  0  0  0  0  0  0
   -1.0219   -0.0737    7.7247 H   0  0  0  0  0  0  0  0  0  0  0  0
    1.1531   -0.0457    6.4276 H   0  0  0  0  0  0  0  0  0  0  0  0
   -3.1958   -0.0216    3.9936 H   0  0  0  0  0  0  0  0  0  0  0  0
    2.5039   -0.8931    0.9013 H   0  0  0  0  0  0  0  0  0  0  0  0
    3.3204    0.0019    2.2286 H   0  0  0  0  0  0  0  0  0  0  0  0
    2.5024    0.8990    0.9036 H   0  0  0  0  0  0  0  0  0  0  0  0
   -2.2899   -0.0253   -0.3257 Au  0  0  0  0  0  0  0  0  0  0  0  0
   -4.5113    0.9387    5.3018 H   0  0  0  0  0  0  0  0  0  0  0  0
   -5.5497   -1.7904    5.3952 H   0  0  0  0  0  0  0  0  0  0  0  0
   -6.3439   -4.0864    5.8705 H   0  0  0  0  0  0  0  0  0  0  0  0
   -7.6257   -4.5611    7.9622 H   0  0  0  0  0  0  0  0  0  0  0  0
   -8.0944   -2.7019    9.5599 H   0  0  0  0  0  0  0  0  0  0  0  0
   -7.3044   -0.4195    9.0827 H   0  0  0  0  0  0  0  0  0  0  0  0
   -6.9029    1.6020    8.4501 H   0  0  0  0  0  0  0  0  0  0  0  0
   -5.5095    2.4217    7.7129 H   0  0  0  0  0  0  0  0  0  0  0  0
   -5.2403    1.0417    8.8149 H   0  0  0  0  0  0  0  0  0  0  0  0
   -7.9355    1.0786    6.1893 H   0  0  0  0  0  0  0  0  0  0  0  0
   -6.9400    0.4061    4.8789 H   0  0  0  0  0  0  0  0  0  0  0  0
   -6.6369    2.0709    5.4747 H   0  0  0  0  0  0  0  0  0  0  0  0
  2  1  2  0  0  0  0
  3  4  1  0  0  0  0
  3  2  1  0  0  0  0
  4 26  1  0  0  0  0
  5 27  1  0  0  0  0
  5  4  2  0  0  0  0
  6 12  1  6  0  0  0
  6  5  1  0  0  0  0
  7  6  1  0  0  0  0
  7  8  1  0  0  0  0
  8  3  2  0  0  0  0
  9  7  2  0  0  0  0
 10 11  1  0  0  0  0
 10  9  2  0  0  0  0
 11 12  1  0  0  0  0
 12 13  2  0  0  0  0
 14 30  1  0  0  0  0
 14 11  1  0  0  0  0
 15 10  1  0  0  0  0
 16  2  1  0  0  0  0
 16 17  1  0  0  0  0
 17 18  1  0  0  0  0
 17 24  1  0  0  0  0
 18 23  2  0  0  0  0
 19 20  2  0  0  0  0
 19 18  1  0  0  0  0
 20 21  1  0  0  0  0
 21 36  1  0  0  0  0
 21 22  2  0  0  0  0
 22 37  1  0  0  0  0
 23 22  1  0  0  0  0
 23 38  1  0  0  0  0
 24 39  1  0  0  0  0
 24 41  1  0  0  0  0
 25 42  1  0  0  0  0
 25 17  1  0  0  0  0
 28  8  1  0  0  0  0
 29 14  1  0  0  0  0
 31 14  1  0  0  0  0
 32 15  1  0  0  0  0
 33 16  1  0  0  0  0
 34 19  1  0  0  0  0
 35 20  1  0  0  0  0
 40 24  1  0  0  0  0
 43 25  1  0  0  0  0
 44 25  1  0  0  0  0
M  RAD  1   6   2
M  END
