36764018.xyz
 OpenBabel07262113513D
Fc1cc(Cl)c(cc1C)S
 16 16  0  0  0  0  0  0  0  0999 V2000
    0.2407    0.2947    5.8866 F   0  0  0  0  0  0  0  0  0  0  0  0
    0.1697    0.1981    4.5505 C   0  0  0  0  0  0  0  0  0  0  0  0
   -1.0834    0.1822    3.9510 C   0  0  0  0  0  0  0  0  0  0  0  0
   -1.1674    0.0922    2.5600 C   0  0  0  0  0  0  0  0  0  0  0  0
   -2.7496    0.0573    1.8388 Cl  0  0  0  0  0  0  0  0  0  0  0  0
    0.0000    0.0000    1.7723 C   0  0  0  0  0  0  0  0  0  0  0  0
    1.2427    0.0000    2.4363 C   0  0  0  0  0  0  0  0  0  0  0  0
    1.3634    0.1102    3.8228 C   0  0  0  0  0  0  0  0  0  0  0  0
    2.6894    0.1249    4.5313 C   0  0  0  0  0  0  0  0  0  0  0  0
    0.0000    0.0000    0.0000 S   0  0  0  0  0  0  0  0  0  0  0  0
   -1.9812    0.2461    4.5653 H   0  0  0  0  0  0  0  0  0  0  0  0
    2.1447   -0.0882    1.8275 H   0  0  0  0  0  0  0  0  0  0  0  0
    2.8286    1.0620    5.0944 H   0  0  0  0  0  0  0  0  0  0  0  0
    2.7598   -0.6974    5.2614 H   0  0  0  0  0  0  0  0  0  0  0  0
    3.5176    0.0255    3.8163 H   0  0  0  0  0  0  0  0  0  0  0  0
   -1.0114   -2.0082   -0.5239 Au  0  0  0  0  0  0  0  0  0  0  0  0
  2  1  1  0  0  0  0
  3  2  1  0  0  0  0
  3 11  1  0  0  0  0
  4  3  2  0  0  0  0
  5  4  1  0  0  0  0
  6  7  2  0  0  0  0
  6  4  1  0  0  0  0
  7  8  1  0  0  0  0
  8  9  1  0  0  0  0
  8  2  2  0  0  0  0
  9 13  1  0  0  0  0
  9 14  1  0  0  0  0
 10  6  1  0  0  0  0
 12  7  1  0  0  0  0
 15  9  1  0  0  0  0
 16 10  1  0  0  0  0
M  END
