37050139.xyz
 OpenBabel07262113513D
CCOC(=O)N1CCC(CC1)n1c(S)nc2c(c1=O)cccc2
 42 44  0  0  1  0  0  0  0  0999 V2000
   -9.2545    1.4769    0.1084 C   0  0  0  0  0  0  0  0  0  0  0  0
   -8.1775    0.8176   -0.7355 C   0  0  0  0  0  0  0  0  0  0  0  0
   -6.8848    0.9257   -0.1268 O   0  0  0  0  0  0  0  0  0  0  0  0
   -6.5979    0.0190    0.8434 C   0  0  0  0  0  0  0  0  0  0  0  0
   -7.3522   -0.8751    1.1754 O   0  0  0  0  0  0  0  0  0  0  0  0
   -5.3643    0.2560    1.3727 N   0  0  0  0  0  0  0  0  0  0  0  0
   -4.5043    1.3285    0.8688 C   0  0  0  0  0  0  0  0  0  0  0  0
   -3.1946    1.3733    1.6507 C   0  0  0  0  0  0  0  0  0  0  0  0
   -2.5003    0.0058    1.6160 C   0  0  0  0  0  0  0  0  0  0  0  0
   -3.4566   -1.1565    1.9983 C   0  0  0  0  0  0  0  0  0  0  0  0
   -4.8382   -0.6432    2.3967 C   0  0  0  0  0  0  0  0  0  0  0  0
   -1.2427    0.0157    2.3998 N   0  0  0  0  0  0  0  0  0  0  0  0
    0.0000    0.0000    1.7845 C   0  0  0  0  0  0  0  0  0  0  0  0
    0.0000    0.0000    0.0000 S   0  0  0  0  0  0  0  0  0  0  0  0
    1.1278   -0.0000    2.4240 N   0  0  0  0  0  0  0  0  0  0  0  0
    1.1217    0.0291    3.7997 C   0  0  0  0  0  0  0  0  0  0  0  0
   -0.0859    0.0870    4.5306 C   0  0  2  0  0  0  0  0  0  0  0  0
   -1.3575    0.1013    3.8070 C   0  0  0  0  0  0  0  0  0  0  0  0
   -2.4555    0.1722    4.3362 O   0  0  0  0  0  0  0  0  0  0  0  0
   -0.0721    0.1308    5.9358 C   0  0  0  0  0  0  0  0  0  0  0  0
    1.1370    0.1114    6.6157 C   0  0  0  0  0  0  0  0  0  0  0  0
    2.3453    0.0509    5.8928 C   0  0  0  0  0  0  0  0  0  0  0  0
    2.3441    0.0112    4.5062 C   0  0  0  0  0  0  0  0  0  0  0  0
   -9.3651    0.9478    1.0659 H   0  0  0  0  0  0  0  0  0  0  0  0
  -10.2218    1.4438   -0.4182 H   0  0  0  0  0  0  0  0  0  0  0  0
   -9.0055    2.5309    0.3086 H   0  0  0  0  0  0  0  0  0  0  0  0
   -8.4090   -0.2451   -0.9003 H   0  0  0  0  0  0  0  0  0  0  0  0
   -8.0702    1.3173   -1.7094 H   0  0  0  0  0  0  0  0  0  0  0  0
   -5.0232    2.2971    0.9430 H   0  0  0  0  0  0  0  0  0  0  0  0
   -4.2980    1.1701   -0.2051 H   0  0  0  0  0  0  0  0  0  0  0  0
   -3.3800    1.6685    2.6914 H   0  0  0  0  0  0  0  0  0  0  0  0
   -2.5328    2.1281    1.1996 H   0  0  0  0  0  0  0  0  0  0  0  0
   -2.1878   -0.1649    0.5783 H   0  0  0  0  0  0  0  0  0  0  0  0
   -3.5575   -1.8263    1.1300 H   0  0  0  0  0  0  0  0  0  0  0  0
   -3.0388   -1.7509    2.8205 H   0  0  0  0  0  0  0  0  0  0  0  0
   -5.5528   -1.4679    2.4992 H   0  0  0  0  0  0  0  0  0  0  0  0
   -4.7677   -0.1277    3.3665 H   0  0  0  0  0  0  0  0  0  0  0  0
    2.2946   -0.0281   -0.3115 Au  0  0  0  0  0  0  0  0  0  0  0  0
   -1.0285    0.1774    6.4594 H   0  0  0  0  0  0  0  0  0  0  0  0
    1.1554    0.1429    7.7070 H   0  0  0  0  0  0  0  0  0  0  0  0
    3.2960    0.0361    6.4317 H   0  0  0  0  0  0  0  0  0  0  0  0
    3.2719   -0.0329    3.9335 H   0  0  0  0  0  0  0  0  0  0  0  0
  1 26  1  0  0  0  0
  1 24  1  0  0  0  0
  2  3  1  0  0  0  0
  2  1  1  0  0  0  0
  3  4  1  0  0  0  0
  4  5  2  0  0  0  0
  4  6  1  0  0  0  0
  6 11  1  0  0  0  0
  7 29  1  0  0  0  0
  7  6  1  0  0  0  0
  7  8  1  0  0  0  0
  8 31  1  0  0  0  0
  9  8  1  0  0  0  0
  9 10  1  0  0  0  0
  9 12  1  0  0  0  0
 10 11  1  0  0  0  0
 10 35  1  0  0  0  0
 11 36  1  0  0  0  0
 11 37  1  0  0  0  0
 12 18  1  0  0  0  0
 13 12  1  0  0  0  0
 13 15  2  0  0  0  0
 14 13  1  0  0  0  0
 15 16  2  0  0  0  0
 16 23  1  0  0  0  0
 17 16  1  6  0  0  0
 17 20  1  0  0  0  0
 18 19  2  0  0  0  0
 18 17  1  0  0  0  0
 20 39  1  0  0  0  0
 20 21  2  0  0  0  0
 21 40  1  0  0  0  0
 22 41  1  0  0  0  0
 22 21  1  0  0  0  0
 23 22  2  0  0  0  0
 25  1  1  0  0  0  0
 27  2  1  0  0  0  0
 28  2  1  0  0  0  0
 30  7  1  0  0  0  0
 32  8  1  0  0  0  0
 33  9  1  0  0  0  0
 34 10  1  0  0  0  0
 38 14  1  0  0  0  0
 42 23  1  0  0  0  0
M  RAD  1  17   2
M  END
