37538459.xyz
 OpenBabel07262113513D
Sc1nnc(n1C1CCCC1)c1ccccn1
 31 33  0  0  0  0  0  0  0  0999 V2000
    0.0000    0.0000    0.0000 S   0  0  0  0  0  0  0  0  0  0  0  0
    0.0000   -0.0000    1.7572 C   0  0  0  0  0  0  0  0  0  0  0  0
    1.0864   -0.0000    2.5200 N   0  0  0  0  0  0  0  0  0  0  0  0
    0.6861    0.0011    3.8098 N   0  0  0  0  0  0  0  0  0  0  0  0
   -0.6335    0.0015    3.8418 C   0  0  0  0  0  0  0  0  0  0  0  0
   -1.1250    0.0035    2.5432 N   0  0  0  0  0  0  0  0  0  0  0  0
   -2.5223   -0.0058    2.0927 C   0  0  0  0  0  0  0  0  0  0  0  0
   -2.9187   -1.2848    1.3310 C   0  0  0  0  0  0  0  0  0  0  0  0
   -4.1139   -0.8250    0.4913 C   0  0  0  0  0  0  0  0  0  0  0  0
   -3.6703    0.5569   -0.0169 C   0  0  0  0  0  0  0  0  0  0  0  0
   -2.9072    1.1866    1.1689 C   0  0  0  0  0  0  0  0  0  0  0  0
   -1.3837   -0.0024    5.1081 C   0  0  0  0  0  0  0  0  0  0  0  0
   -0.6481    0.0063    6.3114 C   0  0  0  0  0  0  0  0  0  0  0  0
   -1.3404    0.0004    7.5160 C   0  0  0  0  0  0  0  0  0  0  0  0
   -2.7398   -0.0135    7.4984 C   0  0  0  0  0  0  0  0  0  0  0  0
   -3.3786   -0.0209    6.2585 C   0  0  0  0  0  0  0  0  0  0  0  0
   -2.7241   -0.0160    5.0956 N   0  0  0  0  0  0  0  0  0  0  0  0
    2.3170    0.0361   -0.1975 Au  0  0  0  0  0  0  0  0  0  0  0  0
   -3.1030    0.0467    3.0174 H   0  0  0  0  0  0  0  0  0  0  0  0
   -2.0985   -1.6056    0.6685 H   0  0  0  0  0  0  0  0  0  0  0  0
   -3.1416   -2.1162    2.0166 H   0  0  0  0  0  0  0  0  0  0  0  0
   -5.0076   -0.7255    1.1323 H   0  0  0  0  0  0  0  0  0  0  0  0
   -4.3681   -1.5253   -0.3188 H   0  0  0  0  0  0  0  0  0  0  0  0
   -4.5087    1.1789   -0.3645 H   0  0  0  0  0  0  0  0  0  0  0  0
   -2.9845    0.4264   -0.8696 H   0  0  0  0  0  0  0  0  0  0  0  0
   -2.0225    1.7467    0.8352 H   0  0  0  0  0  0  0  0  0  0  0  0
   -3.5398    1.8915    1.7295 H   0  0  0  0  0  0  0  0  0  0  0  0
    0.4404    0.0168    6.2624 H   0  0  0  0  0  0  0  0  0  0  0  0
   -0.7956    0.0066    8.4631 H   0  0  0  0  0  0  0  0  0  0  0  0
   -3.3224   -0.0186    8.4216 H   0  0  0  0  0  0  0  0  0  0  0  0
   -4.4726   -0.0316    6.1984 H   0  0  0  0  0  0  0  0  0  0  0  0
  1  2  1  0  0  0  0
  2  3  2  0  0  0  0
  2  6  1  0  0  0  0
  3  4  1  0  0  0  0
  4  5  2  0  0  0  0
  5 12  1  0  0  0  0
  6  5  1  0  0  0  0
  7  6  1  0  0  0  0
  7 19  1  0  0  0  0
  8 21  1  0  0  0  0
  8  7  1  0  0  0  0
  9 22  1  0  0  0  0
  9  8  1  0  0  0  0
 10  9  1  0  0  0  0
 10 11  1  0  0  0  0
 11 27  1  0  0  0  0
 11  7  1  0  0  0  0
 12 13  1  0  0  0  0
 13 14  2  0  0  0  0
 14 29  1  0  0  0  0
 15 14  1  0  0  0  0
 15 30  1  0  0  0  0
 16 15  1  0  0  0  0
 17 12  2  0  0  0  0
 17 16  2  0  0  0  0
 18  1  1  0  0  0  0
 20  8  1  0  0  0  0
 23  9  1  0  0  0  0
 24 10  1  0  0  0  0
 25 10  1  0  0  0  0
 26 11  1  0  0  0  0
 28 13  1  0  0  0  0
 31 16  1  0  0  0  0
M  RAD  1  15   2
M  END
