37551103.xyz
 OpenBabel07262113513D
Sc1nnc([nH]1)c1cccc2c1cccc2
 25 27  0  0  0  0  0  0  0  0999 V2000
    0.0000    0.0000    0.0000 S   0  0  0  0  0  0  0  0  0  0  0  0
    0.0000    0.0000    1.7528 C   0  0  0  0  0  0  0  0  0  0  0  0
    1.0442   -0.0000    2.5627 N   0  0  0  0  0  0  0  0  0  0  0  0
    0.5809   -0.0075    3.8444 N   0  0  0  0  0  0  0  0  0  0  0  0
   -0.7368   -0.0118    3.8219 C   0  0  0  0  0  0  0  0  0  0  0  0
   -1.1456   -0.0040    2.4986 N   0  0  0  0  0  0  0  0  0  0  0  0
   -1.6814    0.0045    4.9450 C   0  0  0  0  0  0  0  0  0  0  0  0
   -2.9630    0.4969    4.7236 C   0  0  0  0  0  0  0  0  0  0  0  0
   -3.9408    0.5135    5.7406 C   0  0  0  0  0  0  0  0  0  0  0  0
   -3.6350    0.0376    6.9954 C   0  0  0  0  0  0  0  0  0  0  0  0
   -2.3379   -0.4672    7.2816 C   0  0  0  0  0  0  0  0  0  0  0  0
   -1.3327   -0.4873    6.2540 C   0  0  0  0  0  0  0  0  0  0  0  0
   -0.0456   -0.9999    6.5798 C   0  0  0  0  0  0  0  0  0  0  0  0
    0.2288   -1.4670    7.8487 C   0  0  0  0  0  0  0  0  0  0  0  0
   -0.7616   -1.4473    8.8594 C   0  0  0  0  0  0  0  0  0  0  0  0
   -2.0172   -0.9566    8.5779 C   0  0  0  0  0  0  0  0  0  0  0  0
    2.3126    0.0017   -0.2140 Au  0  0  0  0  0  0  0  0  0  0  0  0
   -2.0925   -0.0687    2.1483 H   0  0  0  0  0  0  0  0  0  0  0  0
   -3.2238    0.9122    3.7474 H   0  0  0  0  0  0  0  0  0  0  0  0
   -4.9339    0.9134    5.5250 H   0  0  0  0  0  0  0  0  0  0  0  0
   -4.3830    0.0468    7.7921 H   0  0  0  0  0  0  0  0  0  0  0  0
    0.7254   -0.9936    5.8113 H   0  0  0  0  0  0  0  0  0  0  0  0
    1.2249   -1.8546    8.0756 H   0  0  0  0  0  0  0  0  0  0  0  0
   -0.5278   -1.8201    9.8595 H   0  0  0  0  0  0  0  0  0  0  0  0
   -2.7916   -0.9347    9.3489 H   0  0  0  0  0  0  0  0  0  0  0  0
  1  2  1  0  0  0  0
  2  6  1  0  0  0  0
  2  3  2  0  0  0  0
  3  4  1  0  0  0  0
  5  4  2  0  0  0  0
  5  7  1  0  0  0  0
  6  5  1  0  0  0  0
  7 12  1  0  0  0  0
  8  7  2  0  0  0  0
  8  9  1  0  0  0  0
  9 10  2  0  0  0  0
 10 11  1  0  0  0  0
 10 21  1  0  0  0  0
 11 16  2  0  0  0  0
 12 13  2  0  0  0  0
 12 11  1  0  0  0  0
 13 14  1  0  0  0  0
 14 23  1  0  0  0  0
 14 15  2  0  0  0  0
 15 24  1  0  0  0  0
 16 15  1  0  0  0  0
 16 25  1  0  0  0  0
 17  1  1  0  0  0  0
 18  6  1  0  0  0  0
 19  8  1  0  0  0  0
 20  9  1  0  0  0  0
 22 13  1  0  0  0  0
M  END
