37562808.xyz
 OpenBabel07262113513D
Cc1cnc(cn1)c1nnc([nH]1)S
 20 21  0  0  0  0  0  0  0  0999 V2000
   -4.2357    0.0152    8.2692 C   0  0  0  0  0  0  0  0  0  0  0  0
   -3.3057    0.0051    7.0910 C   0  0  0  0  0  0  0  0  0  0  0  0
   -1.9118    0.1530    7.2276 C   0  0  0  0  0  0  0  0  0  0  0  0
   -1.0841    0.1565    6.1918 N   0  0  0  0  0  0  0  0  0  0  0  0
   -1.6196    0.0042    4.9729 C   0  0  0  0  0  0  0  0  0  0  0  0
   -3.0118   -0.1566    4.8316 C   0  0  0  0  0  0  0  0  0  0  0  0
   -3.8370   -0.1520    5.8715 N   0  0  0  0  0  0  0  0  0  0  0  0
   -0.7176    0.0079    3.8191 C   0  0  0  0  0  0  0  0  0  0  0  0
    0.5976    0.0051    3.8419 N   0  0  0  0  0  0  0  0  0  0  0  0
    1.0494    0.0000    2.5603 N   0  0  0  0  0  0  0  0  0  0  0  0
   -0.0000    0.0000    1.7508 C   0  0  0  0  0  0  0  0  0  0  0  0
   -1.1418    0.0023    2.5011 N   0  0  0  0  0  0  0  0  0  0  0  0
    0.0000    0.0000    0.0000 S   0  0  0  0  0  0  0  0  0  0  0  0
   -4.9649    0.8354    8.1723 H   0  0  0  0  0  0  0  0  0  0  0  0
   -3.6920    0.1358    9.2166 H   0  0  0  0  0  0  0  0  0  0  0  0
   -4.8125   -0.9226    8.3071 H   0  0  0  0  0  0  0  0  0  0  0  0
   -1.4650    0.2750    8.2212 H   0  0  0  0  0  0  0  0  0  0  0  0
   -3.4726   -0.3036    3.8472 H   0  0  0  0  0  0  0  0  0  0  0  0
   -2.0891    0.0280    2.1464 H   0  0  0  0  0  0  0  0  0  0  0  0
    2.3160    0.0137   -0.2019 Au  0  0  0  0  0  0  0  0  0  0  0  0
  1 16  1  0  0  0  0
  1 15  1  0  0  0  0
  2  3  1  0  0  0  0
  2  1  1  0  0  0  0
  3 17  1  0  0  0  0
  4  3  2  0  0  0  0
  5  4  2  0  0  0  0
  6  5  1  0  0  0  0
  6  7  2  0  0  0  0
  7  2  2  0  0  0  0
  8  9  2  0  0  0  0
  8  5  1  0  0  0  0
 10  9  1  0  0  0  0
 11 12  1  0  0  0  0
 11 10  2  0  0  0  0
 12  8  1  0  0  0  0
 13 11  1  0  0  0  0
 14  1  1  0  0  0  0
 18  6  1  0  0  0  0
 19 12  1  0  0  0  0
 20 13  1  0  0  0  0
M  END
