37709028.xyz
 OpenBabel07262113513D
CC(n1c(S)nc2c(c1=O)ccs2)C(=O)N
 25 26  0  0  1  0  0  0  0  0999 V2000
    3.1338    1.4222    1.6241 C   0  0  0  0  0  0  0  0  0  0  0  0
    2.4961    0.0399    1.6301 C   0  0  2  0  0  0  0  0  0  0  0  0
    1.2337    0.0000    2.3998 N   0  0  0  0  0  0  0  0  0  0  0  0
    0.0000   -0.0000    1.7776 C   0  0  0  0  0  0  0  0  0  0  0  0
    0.0000    0.0000    0.0000 S   0  0  0  0  0  0  0  0  0  0  0  0
   -1.1347    0.0038    2.4272 N   0  0  0  0  0  0  0  0  0  0  0  0
   -1.0632    0.0320    3.7761 C   0  0  0  0  0  0  0  0  0  0  0  0
    0.1111    0.0743    4.5263 C   0  0  1  0  0  0  0  0  0  0  0  0
    1.3756    0.0794    3.8278 C   0  0  0  0  0  0  0  0  0  0  0  0
    2.4856    0.1231    4.3249 O   0  0  0  0  0  0  0  0  0  0  0  0
   -0.1232    0.1120    5.9368 C   0  0  0  0  0  0  0  0  0  0  0  0
   -1.4572    0.0938    6.2331 C   0  0  0  0  0  0  0  0  0  0  0  0
   -2.4699    0.0348    4.8084 S   0  0  0  0  0  0  0  0  0  0  0  0
    3.4854   -1.0647    2.0594 C   0  0  0  0  0  0  0  0  0  0  0  0
    4.6833   -0.8954    1.9772 O   0  0  0  0  0  0  0  0  0  0  0  0
    2.9147   -2.2632    2.3737 N   0  0  0  0  0  0  0  0  0  0  0  0
    4.0538    1.3863    1.0268 H   0  0  0  0  0  0  0  0  0  0  0  0
    2.4407    2.1534    1.1829 H   0  0  0  0  0  0  0  0  0  0  0  0
    3.4006    1.7267    2.6438 H   0  0  0  0  0  0  0  0  0  0  0  0
    2.2284   -0.2354    0.5980 H   0  0  0  0  0  0  0  0  0  0  0  0
   -2.2900   -0.0296   -0.3376 Au  0  0  0  0  0  0  0  0  0  0  0  0
    0.6758    0.1498    6.6767 H   0  0  0  0  0  0  0  0  0  0  0  0
   -1.9236    0.1119    7.2167 H   0  0  0  0  0  0  0  0  0  0  0  0
    3.5317   -2.9807    2.7362 H   0  0  0  0  0  0  0  0  0  0  0  0
    1.9311   -2.3310    2.5972 H   0  0  0  0  0  0  0  0  0  0  0  0
  1  2  1  0  0  0  0
  1 19  1  0  0  0  0
  2 20  1  6  0  0  0
  2 14  1  0  0  0  0
  2  3  1  0  0  0  0
  3  9  1  0  0  0  0
  4  3  1  0  0  0  0
  4  6  2  0  0  0  0
  5  4  1  0  0  0  0
  6  7  2  0  0  0  0
  7 13  1  0  0  0  0
  8  7  1  6  0  0  0
  8 11  1  0  0  0  0
  9 10  2  0  0  0  0
  9  8  1  0  0  0  0
 11 12  2  0  0  0  0
 11 22  1  0  0  0  0
 12 23  1  0  0  0  0
 13 12  1  0  0  0  0
 14 16  1  0  0  0  0
 15 14  2  0  0  0  0
 16 25  1  0  0  0  0
 16 24  1  0  0  0  0
 17  1  1  0  0  0  0
 18  1  1  0  0  0  0
 21  5  1  0  0  0  0
M  RAD  1   8   2
M  END
