37768961.xyz
 OpenBabel07262113513D
Cn1c(S)nnc1N1CCc2c(C1)cccc2
 31 33  0  0  0  0  0  0  0  0999 V2000
    2.5178   -0.1673    2.0067 C   0  0  0  0  0  0  0  0  0  0  0  0
    1.1651   -0.0000    2.4921 N   0  0  0  0  0  0  0  0  0  0  0  0
   -0.0000    0.0000    1.7579 C   0  0  0  0  0  0  0  0  0  0  0  0
    0.0000    0.0000    0.0000 S   0  0  0  0  0  0  0  0  0  0  0  0
   -1.0402    0.0072    2.5633 N   0  0  0  0  0  0  0  0  0  0  0  0
   -0.5734    0.0377    3.8552 N   0  0  0  0  0  0  0  0  0  0  0  0
    0.7373    0.0326    3.8104 C   0  0  0  0  0  0  0  0  0  0  0  0
    1.6260   -0.0199    4.8726 N   0  0  0  0  0  0  0  0  0  0  0  0
    1.0768   -0.5056    6.1403 C   0  0  0  0  0  0  0  0  0  0  0  0
    0.2133    0.5477    6.8385 C   0  0  0  0  0  0  0  0  0  0  0  0
    0.8615    1.9147    6.8383 C   0  0  0  0  0  0  0  0  0  0  0  0
    1.9293    2.2062    5.9708 C   0  0  0  0  0  0  0  0  0  0  0  0
    2.5110    1.1304    5.0704 C   0  0  0  0  0  0  0  0  0  0  0  0
    2.4910    3.4904    5.9654 C   0  0  0  0  0  0  0  0  0  0  0  0
    2.0062    4.4894    6.8078 C   0  0  0  0  0  0  0  0  0  0  0  0
    0.9433    4.2050    7.6716 C   0  0  0  0  0  0  0  0  0  0  0  0
    0.3809    2.9296    7.6799 C   0  0  0  0  0  0  0  0  0  0  0  0
    2.5108   -0.8295    1.1291 H   0  0  0  0  0  0  0  0  0  0  0  0
    2.9742    0.7934    1.7186 H   0  0  0  0  0  0  0  0  0  0  0  0
    3.1160   -0.6292    2.8042 H   0  0  0  0  0  0  0  0  0  0  0  0
   -2.3121   -0.0939   -0.1926 Au  0  0  0  0  0  0  0  0  0  0  0  0
    1.9353   -0.7823    6.7762 H   0  0  0  0  0  0  0  0  0  0  0  0
    0.4933   -1.4150    5.9439 H   0  0  0  0  0  0  0  0  0  0  0  0
   -0.0021    0.2320    7.8728 H   0  0  0  0  0  0  0  0  0  0  0  0
   -0.7496    0.6080    6.3062 H   0  0  0  0  0  0  0  0  0  0  0  0
    3.4583    0.7624    5.5063 H   0  0  0  0  0  0  0  0  0  0  0  0
    2.7685    1.5659    4.0947 H   0  0  0  0  0  0  0  0  0  0  0  0
    3.3204    3.7086    5.2854 H   0  0  0  0  0  0  0  0  0  0  0  0
    2.4509    5.4872    6.7889 H   0  0  0  0  0  0  0  0  0  0  0  0
    0.5525    4.9791    8.3364 H   0  0  0  0  0  0  0  0  0  0  0  0
   -0.4529    2.7074    8.3521 H   0  0  0  0  0  0  0  0  0  0  0  0
  1  2  1  0  0  0  0
  1 20  1  0  0  0  0
  2  7  1  0  0  0  0
  3  2  1  0  0  0  0
  3  5  2  0  0  0  0
  4  3  1  0  0  0  0
  5  6  1  0  0  0  0
  7  6  2  0  0  0  0
  7  8  1  0  0  0  0
  8 13  1  0  0  0  0
  8  9  1  0  0  0  0
  9 22  1  0  0  0  0
  9 10  1  0  0  0  0
 10 24  1  0  0  0  0
 11 10  1  0  0  0  0
 11 17  2  0  0  0  0
 12 11  1  0  0  0  0
 13 26  1  0  0  0  0
 13 12  1  0  0  0  0
 14 12  2  0  0  0  0
 14 15  1  0  0  0  0
 15 16  2  0  0  0  0
 16 17  1  0  0  0  0
 16 30  1  0  0  0  0
 17 31  1  0  0  0  0
 18  1  1  0  0  0  0
 19  1  1  0  0  0  0
 21  4  1  0  0  0  0
 23  9  1  0  0  0  0
 25 10  1  0  0  0  0
 27 13  1  0  0  0  0
 28 14  1  0  0  0  0
 29 15  1  0  0  0  0
M  END
