37997663.xyz
 OpenBabel07262113513D
Nc1cc(S)cc(c1)S(=O)(=O)N
 20 20  0  0  0  0  0  0  0  0999 V2000
   -2.4578   -0.2745    4.5510 N   0  0  0  0  0  0  0  0  0  0  0  0
   -1.2555   -0.2019    3.8787 C   0  0  0  0  0  0  0  0  0  0  0  0
   -1.2165   -0.0988    2.4735 C   0  0  0  0  0  0  0  0  0  0  0  0
    0.0000    0.0000    1.7866 C   0  0  0  0  0  0  0  0  0  0  0  0
    0.0000    0.0000    0.0000 S   0  0  0  0  0  0  0  0  0  0  0  0
    1.2160   -0.0000    2.4888 C   0  0  0  0  0  0  0  0  0  0  0  0
    1.1625   -0.0784    3.8794 C   0  0  0  0  0  0  0  0  0  0  0  0
   -0.0349   -0.1869    4.5832 C   0  0  0  0  0  0  0  0  0  0  0  0
    2.6983   -0.0123    4.8139 S   0  0  0  0  0  0  0  0  0  0  0  0
    2.4241   -0.5357    6.1502 O   0  0  0  0  0  0  0  0  0  0  0  0
    3.7627   -0.5242    3.9568 O   0  0  0  0  0  0  0  0  0  0  0  0
    3.0284    1.6177    5.0239 N   0  0  0  0  0  0  0  0  0  0  0  0
   -2.4387   -0.6234    5.5014 H   0  0  0  0  0  0  0  0  0  0  0  0
   -3.2710   -0.5620    4.0207 H   0  0  0  0  0  0  0  0  0  0  0  0
   -2.1467   -0.1006    1.9017 H   0  0  0  0  0  0  0  0  0  0  0  0
    0.0670    2.2446   -0.5041 Au  0  0  0  0  0  0  0  0  0  0  0  0
    2.1701    0.0408    1.9642 H   0  0  0  0  0  0  0  0  0  0  0  0
   -0.0105   -0.2800    5.6706 H   0  0  0  0  0  0  0  0  0  0  0  0
    3.2264    2.0981    4.1478 H   0  0  0  0  0  0  0  0  0  0  0  0
    2.3316    2.0940    5.5940 H   0  0  0  0  0  0  0  0  0  0  0  0
  1 13  1  0  0  0  0
  2  1  1  0  0  0  0
  2  8  2  0  0  0  0
  3  2  1  0  0  0  0
  4  3  2  0  0  0  0
  4  6  1  0  0  0  0
  5  4  1  0  0  0  0
  6  7  2  0  0  0  0
  7  8  1  0  0  0  0
  7  9  1  0  0  0  0
  8 18  1  0  0  0  0
  9 12  1  0  0  0  0
  9 10  2  0  0  0  0
 11  9  2  0  0  0  0
 12 20  1  0  0  0  0
 14  1  1  0  0  0  0
 15  3  1  0  0  0  0
 16  5  1  0  0  0  0
 17  6  1  0  0  0  0
 19 12  1  0  0  0  0
M  END
