3802955.xyz
 OpenBabel07262113513D
Clc1ccc(c(c1)C)OC(c1nnc(n1C)S)C
 32 33  0  0  1  0  0  0  0  0999 V2000
   -3.8012   -4.9679    0.9160 Cl  0  0  0  0  0  0  0  0  0  0  0  0
   -3.2132   -3.9750    2.2304 C   0  0  0  0  0  0  0  0  0  0  0  0
   -1.8376   -3.8024    2.4041 C   0  0  0  0  0  0  0  0  0  0  0  0
   -1.3878   -3.0046    3.4557 C   0  0  0  0  0  0  0  0  0  0  0  0
   -2.2997   -2.3749    4.3090 C   0  0  0  0  0  0  0  0  0  0  0  0
   -3.6861   -2.5573    4.1465 C   0  0  0  0  0  0  0  0  0  0  0  0
   -4.1287   -3.3724    3.0966 C   0  0  0  0  0  0  0  0  0  0  0  0
   -4.6554   -1.8850    5.0818 C   0  0  0  0  0  0  0  0  0  0  0  0
   -1.8362   -1.5784    5.3253 O   0  0  0  0  0  0  0  0  0  0  0  0
   -1.6157   -0.1856    5.0077 C   0  0  2  0  0  0  0  0  0  0  0  0
   -0.7265   -0.0324    3.8090 C   0  0  0  0  0  0  0  0  0  0  0  0
    0.5848   -0.0212    3.8425 N   0  0  0  0  0  0  0  0  0  0  0  0
    1.0489    0.0000    2.5609 N   0  0  0  0  0  0  0  0  0  0  0  0
   -0.0000    0.0000    1.7546 C   0  0  0  0  0  0  0  0  0  0  0  0
   -1.1553   -0.0092    2.4919 N   0  0  0  0  0  0  0  0  0  0  0  0
   -2.5018   -0.0686    1.9551 C   0  0  0  0  0  0  0  0  0  0  0  0
    0.0000    0.0000    0.0000 S   0  0  0  0  0  0  0  0  0  0  0  0
   -1.0124    0.4472    6.2477 C   0  0  0  0  0  0  0  0  0  0  0  0
   -1.1343   -4.2849    1.7247 H   0  0  0  0  0  0  0  0  0  0  0  0
   -0.3215   -2.8436    3.6212 H   0  0  0  0  0  0  0  0  0  0  0  0
   -5.1969   -3.5393    2.9473 H   0  0  0  0  0  0  0  0  0  0  0  0
   -4.7868   -0.8180    4.8298 H   0  0  0  0  0  0  0  0  0  0  0  0
   -5.6469   -2.3572    5.0347 H   0  0  0  0  0  0  0  0  0  0  0  0
   -4.2883   -1.9233    6.1175 H   0  0  0  0  0  0  0  0  0  0  0  0
   -2.5958    0.2764    4.7883 H   0  0  0  0  0  0  0  0  0  0  0  0
   -2.7244   -1.0765    1.5745 H   0  0  0  0  0  0  0  0  0  0  0  0
   -2.6031    0.6596    1.1375 H   0  0  0  0  0  0  0  0  0  0  0  0
   -3.2238    0.1772    2.7418 H   0  0  0  0  0  0  0  0  0  0  0  0
    2.3090    0.1284   -0.2066 Au  0  0  0  0  0  0  0  0  0  0  0  0
   -1.6551    0.2417    7.1152 H   0  0  0  0  0  0  0  0  0  0  0  0
   -0.9149    1.5340    6.1150 H   0  0  0  0  0  0  0  0  0  0  0  0
   -0.0131    0.0277    6.4235 H   0  0  0  0  0  0  0  0  0  0  0  0
  1  2  1  0  0  0  0
  2  3  2  0  0  0  0
  2  7  1  0  0  0  0
  3  4  1  0  0  0  0
  4 20  1  0  0  0  0
  4  5  2  0  0  0  0
  5  9  1  0  0  0  0
  6  5  1  0  0  0  0
  6  8  1  0  0  0  0
  7  6  2  0  0  0  0
  8 24  1  0  0  0  0
 10 25  1  6  0  0  0
 10  9  1  0  0  0  0
 10 18  1  0  0  0  0
 11 12  2  0  0  0  0
 11 10  1  0  0  0  0
 13 12  1  0  0  0  0
 14 15  1  0  0  0  0
 14 13  2  0  0  0  0
 15 11  1  0  0  0  0
 16 15  1  0  0  0  0
 16 28  1  0  0  0  0
 17 14  1  0  0  0  0
 18 32  1  0  0  0  0
 18 30  1  0  0  0  0
 19  3  1  0  0  0  0
 21  7  1  0  0  0  0
 22  8  1  0  0  0  0
 23  8  1  0  0  0  0
 26 16  1  0  0  0  0
 27 16  1  0  0  0  0
 29 17  1  0  0  0  0
 31 18  1  0  0  0  0
M  END
