3802875.xyz
 OpenBabel07262113513D
CC(n1c(S)nnc1c1csc2c1CCCC2)C
 35 37  0  0  0  0  0  0  0  0999 V2000
    3.0202    1.0877    1.3958 C   0  0  0  0  0  0  0  0  0  0  0  0
    2.5294   -0.1534    2.1414 C   0  0  0  0  0  0  0  0  0  0  0  0
    1.1239   -0.0000    2.5534 N   0  0  0  0  0  0  0  0  0  0  0  0
    0.0000    0.0000    1.7602 C   0  0  0  0  0  0  0  0  0  0  0  0
    0.0000    0.0000    0.0000 S   0  0  0  0  0  0  0  0  0  0  0  0
   -1.0832    0.0246    2.5193 N   0  0  0  0  0  0  0  0  0  0  0  0
   -0.6887    0.0451    3.8200 N   0  0  0  0  0  0  0  0  0  0  0  0
    0.6276    0.0395    3.8528 C   0  0  0  0  0  0  0  0  0  0  0  0
    1.4239    0.0853    5.0796 C   0  0  0  0  0  0  0  0  0  0  0  0
    2.5708    0.8324    5.2562 C   0  0  0  0  0  0  0  0  0  0  0  0
    3.2051    0.6813    6.8556 S   0  0  0  0  0  0  0  0  0  0  0  0
    1.9192   -0.3981    7.3182 C   0  0  0  0  0  0  0  0  0  0  0  0
    1.0481   -0.6284    6.2793 C   0  0  0  0  0  0  0  0  0  0  0  0
   -0.1546   -1.5228    6.4337 C   0  0  0  0  0  0  0  0  0  0  0  0
   -0.0562   -2.3873    7.6970 C   0  0  0  0  0  0  0  0  0  0  0  0
    0.4026   -1.5677    8.9074 C   0  0  0  0  0  0  0  0  0  0  0  0
    1.8141   -1.0031    8.6893 C   0  0  0  0  0  0  0  0  0  0  0  0
    2.7435   -1.4555    1.3685 C   0  0  0  0  0  0  0  0  0  0  0  0
    4.0906    0.9877    1.1601 H   0  0  0  0  0  0  0  0  0  0  0  0
    2.4709    1.2286    0.4525 H   0  0  0  0  0  0  0  0  0  0  0  0
    2.8810    1.9926    2.0069 H   0  0  0  0  0  0  0  0  0  0  0  0
    3.0839   -0.2357    3.0849 H   0  0  0  0  0  0  0  0  0  0  0  0
   -2.3187    0.0717   -0.1831 Au  0  0  0  0  0  0  0  0  0  0  0  0
    3.0443    1.5073    4.5464 H   0  0  0  0  0  0  0  0  0  0  0  0
   -1.0616   -0.8955    6.4576 H   0  0  0  0  0  0  0  0  0  0  0  0
   -0.2740   -2.1499    5.5362 H   0  0  0  0  0  0  0  0  0  0  0  0
    0.6641   -3.2080    7.5273 H   0  0  0  0  0  0  0  0  0  0  0  0
   -1.0297   -2.8606    7.9004 H   0  0  0  0  0  0  0  0  0  0  0  0
   -0.3018   -0.7328    9.0680 H   0  0  0  0  0  0  0  0  0  0  0  0
    0.3862   -2.1801    9.8229 H   0  0  0  0  0  0  0  0  0  0  0  0
    2.0573   -0.2568    9.4636 H   0  0  0  0  0  0  0  0  0  0  0  0
    2.5603   -1.8121    8.7988 H   0  0  0  0  0  0  0  0  0  0  0  0
    3.8167   -1.5910    1.1652 H   0  0  0  0  0  0  0  0  0  0  0  0
    2.3908   -2.3161    1.9562 H   0  0  0  0  0  0  0  0  0  0  0  0
    2.2089   -1.4538    0.4071 H   0  0  0  0  0  0  0  0  0  0  0  0
  1 21  1  0  0  0  0
  1  2  1  0  0  0  0
  2  3  1  0  0  0  0
  2 22  1  0  0  0  0
  3  8  1  0  0  0  0
  4  6  2  0  0  0  0
  4  3  1  0  0  0  0
  5  4  1  0  0  0  0
  6  7  1  0  0  0  0
  7  8  2  0  0  0  0
  8  9  1  0  0  0  0
  9 10  2  0  0  0  0
  9 13  1  0  0  0  0
 10 11  1  0  0  0  0
 11 12  1  0  0  0  0
 12 17  1  0  0  0  0
 13 14  1  0  0  0  0
 13 12  2  0  0  0  0
 14 25  1  0  0  0  0
 14 15  1  0  0  0  0
 15 28  1  0  0  0  0
 15 16  1  0  0  0  0
 16 29  1  0  0  0  0
 16 30  1  0  0  0  0
 17 32  1  0  0  0  0
 17 16  1  0  0  0  0
 17 31  1  0  0  0  0
 18 34  1  0  0  0  0
 18  2  1  0  0  0  0
 19  1  1  0  0  0  0
 20  1  1  0  0  0  0
 23  5  1  0  0  0  0
 24 10  1  0  0  0  0
 26 14  1  0  0  0  0
 27 15  1  0  0  0  0
 33 18  1  0  0  0  0
 35 18  1  0  0  0  0
M  END
