38323513.xyz
 OpenBabel07262113513D
CN1CCC(C1)n1cnnc1S
 24 25  0  0  1  0  0  0  0  0999 V2000
    5.2945   -2.4561    2.5335 C   0  0  0  0  0  0  0  0  0  0  0  0
    4.5183   -1.2697    2.2672 N   0  0  0  0  0  0  0  0  0  0  0  0
    4.5905   -0.2291    3.2803 C   0  0  0  0  0  0  0  0  0  0  0  0
    3.5387    0.7880    2.8171 C   0  0  0  0  0  0  0  0  0  0  0  0
    2.5202   -0.0614    2.0067 C   0  0  1  0  0  0  0  0  0  0  0  0
    3.1037   -1.4898    2.0495 C   0  0  0  0  0  0  0  0  0  0  0  0
    1.1524   -0.0000    2.5032 N   0  0  0  0  0  0  0  0  0  0  0  0
    0.7074   -0.0319    3.8077 C   0  0  0  0  0  0  0  0  0  0  0  0
   -0.5984   -0.0290    3.8477 N   0  0  0  0  0  0  0  0  0  0  0  0
   -1.0528   -0.0108    2.5561 N   0  0  0  0  0  0  0  0  0  0  0  0
   -0.0000    0.0000    1.7575 C   0  0  0  0  0  0  0  0  0  0  0  0
    0.0000    0.0000    0.0000 S   0  0  0  0  0  0  0  0  0  0  0  0
    5.2070   -3.1628    1.6934 H   0  0  0  0  0  0  0  0  0  0  0  0
    6.3585   -2.1944    2.6454 H   0  0  0  0  0  0  0  0  0  0  0  0
    4.9734   -2.9865    3.4602 H   0  0  0  0  0  0  0  0  0  0  0  0
    4.3312   -0.6226    4.2923 H   0  0  0  0  0  0  0  0  0  0  0  0
    5.6061    0.1920    3.3440 H   0  0  0  0  0  0  0  0  0  0  0  0
    3.9920    1.5416    2.1588 H   0  0  0  0  0  0  0  0  0  0  0  0
    3.0636    1.3234    3.6497 H   0  0  0  0  0  0  0  0  0  0  0  0
    2.4821    0.2960    0.9697 H   0  0  0  0  0  0  0  0  0  0  0  0
    2.9136   -2.0562    1.1247 H   0  0  0  0  0  0  0  0  0  0  0  0
    2.6263   -2.0470    2.8898 H   0  0  0  0  0  0  0  0  0  0  0  0
    1.3737   -0.0545    4.6678 H   0  0  0  0  0  0  0  0  0  0  0  0
   -2.3104    0.1323   -0.1954 Au  0  0  0  0  0  0  0  0  0  0  0  0
  1 14  1  0  0  0  0
  1 15  1  0  0  0  0
  2  1  1  0  0  0  0
  2  3  1  0  0  0  0
  3 17  1  0  0  0  0
  3 16  1  0  0  0  0
  4  3  1  0  0  0  0
  4 19  1  0  0  0  0
  5 20  1  6  0  0  0
  5  6  1  0  0  0  0
  5  7  1  0  0  0  0
  5  4  1  0  0  0  0
  6  2  1  0  0  0  0
  6 22  1  0  0  0  0
  7  8  1  0  0  0  0
  8  9  2  0  0  0  0
  8 23  1  0  0  0  0
 10  9  1  0  0  0  0
 11  7  1  0  0  0  0
 11 10  2  0  0  0  0
 12 11  1  0  0  0  0
 13  1  1  0  0  0  0
 18  4  1  0  0  0  0
 21  6  1  0  0  0  0
 24 12  1  0  0  0  0
M  END
