39000790.xyz
 OpenBabel07262113513D
Cc1cc(Br)c2c(c1)nc(o2)S
 18 19  0  0  0  0  0  0  0  0999 V2000
   -1.0918   -0.0577    7.5673 C   0  0  0  0  0  0  0  0  0  0  0  0
   -0.4426   -0.0413    6.2043 C   0  0  0  0  0  0  0  0  0  0  0  0
    0.9687   -0.0297    6.1173 C   0  0  0  0  0  0  0  0  0  0  0  0
    1.6279   -0.0148    4.8857 C   0  0  0  0  0  0  0  0  0  0  0  0
    3.5212    0.0020    4.7599 Br  0  0  0  0  0  0  0  0  0  0  0  0
    0.8369   -0.0132    3.7458 C   0  0  0  0  0  0  0  0  0  0  0  0
   -0.5674   -0.0229    3.8031 C   0  0  0  0  0  0  0  0  0  0  0  0
   -1.2209   -0.0376    5.0394 C   0  0  0  0  0  0  0  0  0  0  0  0
   -1.0550   -0.0112    2.4978 N   0  0  0  0  0  0  0  0  0  0  0  0
   -0.0000    0.0000    1.7493 C   0  0  0  0  0  0  0  0  0  0  0  0
    1.1994    0.0000    2.4278 O   0  0  0  0  0  0  0  0  0  0  0  0
    0.0000    0.0000    0.0000 S   0  0  0  0  0  0  0  0  0  0  0  0
   -0.7979    0.8242    8.1597 H   0  0  0  0  0  0  0  0  0  0  0  0
   -2.1882   -0.0616    7.4889 H   0  0  0  0  0  0  0  0  0  0  0  0
   -0.7904   -0.9489    8.1418 H   0  0  0  0  0  0  0  0  0  0  0  0
    1.5646   -0.0325    7.0320 H   0  0  0  0  0  0  0  0  0  0  0  0
   -2.3108   -0.0455    5.0854 H   0  0  0  0  0  0  0  0  0  0  0  0
    2.2559    0.1507   -0.4500 Au  0  0  0  0  0  0  0  0  0  0  0  0
  1 15  1  0  0  0  0
  1 13  1  0  0  0  0
  2  1  1  0  0  0  0
  3  2  2  0  0  0  0
  3 16  1  0  0  0  0
  4  3  1  0  0  0  0
  5  4  1  0  0  0  0
  6  7  1  0  0  0  0
  6  4  2  0  0  0  0
  7  8  1  0  0  0  0
  8 17  1  0  0  0  0
  8  2  1  0  0  0  0
  9  7  2  0  0  0  0
 10 11  1  0  0  0  0
 10  9  2  0  0  0  0
 11  6  1  0  0  0  0
 12 10  1  0  0  0  0
 14  1  1  0  0  0  0
 18 12  1  0  0  0  0
M  RAD  1   8   2
M  END
