39037848.xyz
 OpenBabel07262113513D
CCc1nn(c(c1)S)c1ccc(nn1)C
 27 29  0  0  0  0  0  0  0  0999 V2000
   -2.4130    0.7875    5.4087 C   0  0  0  0  0  0  0  0  0  0  0  0
   -1.5770   -0.4599    5.0955 C   0  0  0  0  0  0  0  0  0  0  0  0
   -0.7244   -0.2984    3.8730 C   0  0  0  0  0  0  0  0  0  0  0  0
    0.5875   -0.1923    3.9716 N   0  0  0  0  0  0  0  0  0  0  0  0
    1.0546   -0.0000    2.6900 N   0  0  0  0  0  0  0  0  0  0  0  0
   -0.0000   -0.0000    1.7621 C   0  0  0  0  0  0  0  0  0  0  0  0
   -1.1455   -0.1752    2.5218 C   0  0  0  0  0  0  0  0  0  0  0  0
    0.0000    0.0000    0.0000 S   0  0  0  0  0  0  0  0  0  0  0  0
    2.4548    0.0866    2.6062 C   0  0  0  0  0  0  0  0  0  0  0  0
    3.2243   -0.6771    3.5149 C   0  0  0  0  0  0  0  0  0  0  0  0
    4.5913   -0.5446    3.4642 C   0  0  0  0  0  0  0  0  0  0  0  0
    5.1508    0.3398    2.5139 C   0  0  0  0  0  0  0  0  0  0  0  0
    4.3770    1.0330    1.6869 N   0  0  0  0  0  0  0  0  0  0  0  0
    3.0523    0.9163    1.7435 N   0  0  0  0  0  0  0  0  0  0  0  0
    6.6333    0.5411    2.3904 C   0  0  0  0  0  0  0  0  0  0  0  0
   -3.0898    1.0347    4.5755 H   0  0  0  0  0  0  0  0  0  0  0  0
   -3.0277    0.6347    6.3098 H   0  0  0  0  0  0  0  0  0  0  0  0
   -1.7631    1.6597    5.5800 H   0  0  0  0  0  0  0  0  0  0  0  0
   -2.2458   -1.3265    4.9550 H   0  0  0  0  0  0  0  0  0  0  0  0
   -0.9141   -0.6967    5.9418 H   0  0  0  0  0  0  0  0  0  0  0  0
   -2.1571   -0.2111    2.1261 H   0  0  0  0  0  0  0  0  0  0  0  0
    1.8749    1.3808   -0.1973 Au  0  0  0  0  0  0  0  0  0  0  0  0
    2.7135   -1.3286    4.2206 H   0  0  0  0  0  0  0  0  0  0  0  0
    5.2374   -1.1135    4.1364 H   0  0  0  0  0  0  0  0  0  0  0  0
    7.1383   -0.4052    2.1368 H   0  0  0  0  0  0  0  0  0  0  0  0
    7.0627    0.8987    3.3403 H   0  0  0  0  0  0  0  0  0  0  0  0
    6.8411    1.2778    1.6042 H   0  0  0  0  0  0  0  0  0  0  0  0
  1 18  1  0  0  0  0
  1 17  1  0  0  0  0
  2  1  1  0  0  0  0
  2 20  1  0  0  0  0
  3  4  2  0  0  0  0
  3  2  1  0  0  0  0
  5  4  1  0  0  0  0
  6  7  2  0  0  0  0
  6  5  1  0  0  0  0
  7  3  1  0  0  0  0
  8  6  1  0  0  0  0
  9  5  1  0  0  0  0
  9 10  2  0  0  0  0
 10 23  1  0  0  0  0
 11 10  1  0  0  0  0
 11 24  1  0  0  0  0
 12 11  1  0  0  0  0
 13 14  1  0  0  0  0
 13 12  2  0  0  0  0
 14  9  1  0  0  0  0
 15 12  1  0  0  0  0
 15 26  1  0  0  0  0
 16  1  1  0  0  0  0
 19  2  1  0  0  0  0
 21  7  1  0  0  0  0
 22  8  1  0  0  0  0
 22 14  1  0  0  0  0
 25 15  1  0  0  0  0
 27 15  1  0  0  0  0
M  RAD  1  11   2
M  END
