39437502.xyz
 OpenBabel07262113513D
CCOc1ccc(cc1)n1c(S)n[nH]c1=O
 27 28  0  0  0  0  0  0  0  0999 V2000
    6.5403    0.4503   -1.7851 C   0  0  0  0  0  0  0  0  0  0  0  0
    6.9079    0.9696   -0.4024 C   0  0  0  0  0  0  0  0  0  0  0  0
    6.4463    0.1229    0.6413 O   0  0  0  0  0  0  0  0  0  0  0  0
    5.1490    0.1552    1.0308 C   0  0  0  0  0  0  0  0  0  0  0  0
    4.7832   -0.7732    2.0223 C   0  0  0  0  0  0  0  0  0  0  0  0
    3.4808   -0.8269    2.4992 C   0  0  0  0  0  0  0  0  0  0  0  0
    2.5142    0.0577    1.9983 C   0  0  0  0  0  0  0  0  0  0  0  0
    2.8781    1.0022    1.0360 C   0  0  0  0  0  0  0  0  0  0  0  0
    4.1826    1.0442    0.5373 C   0  0  0  0  0  0  0  0  0  0  0  0
    1.1820    0.0000    2.4878 N   0  0  0  0  0  0  0  0  0  0  0  0
   -0.0000    0.0000    1.7624 C   0  0  0  0  0  0  0  0  0  0  0  0
    0.0000    0.0000    0.0000 S   0  0  0  0  0  0  0  0  0  0  0  0
   -1.0445   -0.0362    2.5393 N   0  0  0  0  0  0  0  0  0  0  0  0
   -0.5281   -0.0673    3.8141 N   0  0  0  0  0  0  0  0  0  0  0  0
    0.8439   -0.0607    3.8655 C   0  0  0  0  0  0  0  0  0  0  0  0
    1.5922   -0.1021    4.8173 O   0  0  0  0  0  0  0  0  0  0  0  0
    6.9781    1.0975   -2.5616 H   0  0  0  0  0  0  0  0  0  0  0  0
    5.4510    0.4232   -1.9362 H   0  0  0  0  0  0  0  0  0  0  0  0
    6.9288   -0.5700   -1.9240 H   0  0  0  0  0  0  0  0  0  0  0  0
    8.0013    0.9904   -0.2822 H   0  0  0  0  0  0  0  0  0  0  0  0
    6.5458    2.0016   -0.2481 H   0  0  0  0  0  0  0  0  0  0  0  0
    5.5502   -1.4503    2.4018 H   0  0  0  0  0  0  0  0  0  0  0  0
    3.2054   -1.5432    3.2728 H   0  0  0  0  0  0  0  0  0  0  0  0
    2.1391    1.7158    0.6684 H   0  0  0  0  0  0  0  0  0  0  0  0
    4.4302    1.7836   -0.2230 H   0  0  0  0  0  0  0  0  0  0  0  0
   -2.2681   -0.3210   -0.3137 Au  0  0  0  0  0  0  0  0  0  0  0  0
   -1.1399   -0.1240    4.6170 H   0  0  0  0  0  0  0  0  0  0  0  0
  1  2  1  0  0  0  0
  2 20  1  0  0  0  0
  2 21  1  0  0  0  0
  2  3  1  0  0  0  0
  3  4  1  0  0  0  0
  4  5  1  0  0  0  0
  5 22  1  0  0  0  0
  5  6  2  0  0  0  0
  6 23  1  0  0  0  0
  7 10  1  0  0  0  0
  7  6  1  0  0  0  0
  8  7  2  0  0  0  0
  9  4  2  0  0  0  0
  9  8  1  0  0  0  0
 10 15  1  0  0  0  0
 11 10  1  0  0  0  0
 11 13  2  0  0  0  0
 12 11  1  0  0  0  0
 13 14  1  0  0  0  0
 14 15  1  0  0  0  0
 14 27  1  0  0  0  0
 15 16  2  0  0  0  0
 17  1  1  0  0  0  0
 18  1  1  0  0  0  0
 19  1  1  0  0  0  0
 24  8  1  0  0  0  0
 25  9  1  0  0  0  0
 26 12  1  0  0  0  0
M  END
