39496259.xyz
 OpenBabel07262113513D
Sc1onc(n1)c1ccc(c(c1)C)F
 21 22  0  0  0  0  0  0  0  0999 V2000
    0.0000    0.0000    0.0000 S   0  0  0  0  0  0  0  0  0  0  0  0
   -0.0000   -0.0000    1.7487 C   0  0  0  0  0  0  0  0  0  0  0  0
    1.2019   -0.0000    2.3459 O   0  0  0  0  0  0  0  0  0  0  0  0
    0.9689   -0.0003    3.7236 N   0  0  0  0  0  0  0  0  0  0  0  0
   -0.3419   -0.0003    3.8174 C   0  0  0  0  0  0  0  0  0  0  0  0
   -0.9889   -0.0002    2.5987 N   0  0  0  0  0  0  0  0  0  0  0  0
   -1.0513   -0.0006    5.1023 C   0  0  0  0  0  0  0  0  0  0  0  0
   -2.4527   -0.0027    5.1269 C   0  0  0  0  0  0  0  0  0  0  0  0
   -3.1265   -0.0031    6.3479 C   0  0  0  0  0  0  0  0  0  0  0  0
   -2.3880   -0.0013    7.5258 C   0  0  0  0  0  0  0  0  0  0  0  0
   -0.9858    0.0010    7.5465 C   0  0  0  0  0  0  0  0  0  0  0  0
   -0.3346    0.0013    6.3117 C   0  0  0  0  0  0  0  0  0  0  0  0
   -0.2493    0.0032    8.8579 C   0  0  0  0  0  0  0  0  0  0  0  0
   -3.0393   -0.0016    8.7008 F   0  0  0  0  0  0  0  0  0  0  0  0
   -2.2830    0.0058   -0.3427 Au  0  0  0  0  0  0  0  0  0  0  0  0
   -3.0029   -0.0042    4.1856 H   0  0  0  0  0  0  0  0  0  0  0  0
   -4.2163   -0.0049    6.4037 H   0  0  0  0  0  0  0  0  0  0  0  0
    0.7566    0.0031    6.2786 H   0  0  0  0  0  0  0  0  0  0  0  0
   -0.5136    0.8868    9.4611 H   0  0  0  0  0  0  0  0  0  0  0  0
    0.8376    0.0056    8.6977 H   0  0  0  0  0  0  0  0  0  0  0  0
   -0.5095   -0.8812    9.4617 H   0  0  0  0  0  0  0  0  0  0  0  0
  1  2  1  0  0  0  0
  2  3  1  0  0  0  0
  2  6  2  0  0  0  0
  3  4  1  0  0  0  0
  4  5  2  0  0  0  0
  5  7  1  0  0  0  0
  6  5  2  0  0  0  0
  7  8  2  0  0  0  0
  7 12  1  0  0  0  0
  8  9  1  0  0  0  0
  9 17  1  0  0  0  0
  9 10  2  0  0  0  0
 10 11  1  0  0  0  0
 10 14  1  0  0  0  0
 11 13  1  0  0  0  0
 12 11  2  0  0  0  0
 13 19  1  0  0  0  0
 13 21  1  0  0  0  0
 15  1  1  0  0  0  0
 16  8  1  0  0  0  0
 18 12  1  0  0  0  0
 20 13  1  0  0  0  0
M  END
