39496133.xyz
 OpenBabel07262113513D
Brc1ccc(c(c1)C(F)(F)F)c1noc(n1)S
 21 22  0  0  0  0  0  0  0  0999 V2000
   -3.2482    0.2658    9.2759 Br  0  0  0  0  0  0  0  0  0  0  0  0
   -2.3842    0.1489    7.5880 C   0  0  0  0  0  0  0  0  0  0  0  0
   -1.1202    0.7128    7.4134 C   0  0  0  0  0  0  0  0  0  0  0  0
   -0.5116    0.6253    6.1648 C   0  0  0  0  0  0  0  0  0  0  0  0
   -1.1355   -0.0153    5.0816 C   0  0  0  0  0  0  0  0  0  0  0  0
   -2.4058   -0.6016    5.2833 C   0  0  0  0  0  0  0  0  0  0  0  0
   -3.0213   -0.5092    6.5358 C   0  0  0  0  0  0  0  0  0  0  0  0
   -3.1482   -1.3774    4.2061 C   0  0  0  0  0  0  0  0  0  0  0  0
   -3.7156   -0.5740    3.2911 F   0  0  0  0  0  0  0  0  0  0  0  0
   -4.1483   -2.1053    4.7420 F   0  0  0  0  0  0  0  0  0  0  0  0
   -2.3469   -2.2399    3.5644 F   0  0  0  0  0  0  0  0  0  0  0  0
   -0.4109   -0.0320    3.7977 C   0  0  0  0  0  0  0  0  0  0  0  0
    0.9039   -0.0229    3.7511 N   0  0  0  0  0  0  0  0  0  0  0  0
    1.1816   -0.0000    2.3847 O   0  0  0  0  0  0  0  0  0  0  0  0
    0.0000    0.0000    1.7449 C   0  0  0  0  0  0  0  0  0  0  0  0
   -1.0132   -0.0094    2.5673 N   0  0  0  0  0  0  0  0  0  0  0  0
    0.0000    0.0000    0.0000 S   0  0  0  0  0  0  0  0  0  0  0  0
   -0.6212    1.2198    8.2400 H   0  0  0  0  0  0  0  0  0  0  0  0
    0.4719    1.0691    6.0057 H   0  0  0  0  0  0  0  0  0  0  0  0
   -3.9956   -0.9677    6.6937 H   0  0  0  0  0  0  0  0  0  0  0  0
   -2.2930   -0.2591   -0.2419 Au  0  0  0  0  0  0  0  0  0  0  0  0
  2  1  1  0  0  0  0
  3  2  1  0  0  0  0
  3 18  1  0  0  0  0
  4  3  2  0  0  0  0
  5  6  2  0  0  0  0
  5  4  1  0  0  0  0
  6  7  1  0  0  0  0
  7 20  1  0  0  0  0
  7  2  2  0  0  0  0
  8 10  1  0  0  0  0
  8  6  1  0  0  0  0
  9  8  1  0  0  0  0
 11  8  1  0  0  0  0
 12  5  1  0  0  0  0
 13 12  2  0  0  0  0
 14 13  1  0  0  0  0
 15 14  1  0  0  0  0
 15 16  2  0  0  0  0
 16 12  2  0  0  0  0
 17 15  1  0  0  0  0
 19  4  1  0  0  0  0
 21 17  1  0  0  0  0
M  END
