39845669.xyz
 OpenBabel07262113513D
Clc1ccc(c(c1)Cl)n1nc(cc1S)C1CC1
 27 29  0  0  0  0  0  0  0  0999 V2000
    6.6391   -1.0225    0.5177 Cl  0  0  0  0  0  0  0  0  0  0  0  0
    5.0377   -0.7074    1.1308 C   0  0  0  0  0  0  0  0  0  0  0  0
    4.3695   -1.6980    1.8574 C   0  0  0  0  0  0  0  0  0  0  0  0
    3.0836   -1.4358    2.3251 C   0  0  0  0  0  0  0  0  0  0  0  0
    2.4658   -0.2037    2.0851 C   0  0  0  0  0  0  0  0  0  0  0  0
    3.1636    0.7876    1.3781 C   0  0  0  0  0  0  0  0  0  0  0  0
    4.4488    0.5353    0.8916 C   0  0  0  0  0  0  0  0  0  0  0  0
    2.4530    2.3481    1.1159 Cl  0  0  0  0  0  0  0  0  0  0  0  0
    1.1367   -0.0000    2.5273 N   0  0  0  0  0  0  0  0  0  0  0  0
    0.8460   -0.0036    3.8435 N   0  0  0  0  0  0  0  0  0  0  0  0
   -0.4862    0.0535    3.9240 C   0  0  0  0  0  0  0  0  0  0  0  0
   -1.0694    0.0439    2.6332 C   0  0  0  0  0  0  0  0  0  0  0  0
    0.0000    0.0000    1.7430 C   0  0  0  0  0  0  0  0  0  0  0  0
    0.0000    0.0000    0.0000 S   0  0  0  0  0  0  0  0  0  0  0  0
   -1.1761    0.1164    5.2319 C   0  0  0  0  0  0  0  0  0  0  0  0
   -0.5415   -0.5243    6.4479 C   0  0  0  0  0  0  0  0  0  0  0  0
   -0.5982    0.9697    6.3445 C   0  0  0  0  0  0  0  0  0  0  0  0
    4.8517   -2.6576    2.0444 H   0  0  0  0  0  0  0  0  0  0  0  0
    2.5304   -2.1875    2.8898 H   0  0  0  0  0  0  0  0  0  0  0  0
    4.9834    1.3068    0.3391 H   0  0  0  0  0  0  0  0  0  0  0  0
   -2.1234    0.0572    2.3697 H   0  0  0  0  0  0  0  0  0  0  0  0
    1.0866   -1.9877   -0.4955 Au  0  0  0  0  0  0  0  0  0  0  0  0
   -2.2657    0.0744    5.1569 H   0  0  0  0  0  0  0  0  0  0  0  0
    0.4264   -1.0057    6.2869 H   0  0  0  0  0  0  0  0  0  0  0  0
   -1.2000   -1.0278    7.1609 H   0  0  0  0  0  0  0  0  0  0  0  0
   -1.2968    1.5160    6.9843 H   0  0  0  0  0  0  0  0  0  0  0  0
    0.3306    1.4974    6.1128 H   0  0  0  0  0  0  0  0  0  0  0  0
  1  2  1  0  0  0  0
  2  3  1  0  0  0  0
  3 18  1  0  0  0  0
  3  4  2  0  0  0  0
  4 19  1  0  0  0  0
  5  4  1  0  0  0  0
  5  9  1  0  0  0  0
  6  5  2  0  0  0  0
  7  2  2  0  0  0  0
  7  6  1  0  0  0  0
  8  6  1  0  0  0  0
  9 10  1  0  0  0  0
 10 11  2  0  0  0  0
 11 15  1  0  0  0  0
 12 11  1  0  0  0  0
 13  9  1  0  0  0  0
 13 12  2  0  0  0  0
 14 13  1  0  0  0  0
 15 17  1  0  0  0  0
 15 16  1  0  0  0  0
 16 25  1  0  0  0  0
 17 16  1  0  0  0  0
 17 26  1  0  0  0  0
 20  7  1  0  0  0  0
 21 12  1  0  0  0  0
 22 14  1  0  0  0  0
 23 15  1  0  0  0  0
 24 16  1  0  0  0  0
 27 17  1  0  0  0  0
M  END
