3996918.xyz
 OpenBabel07262113513D
Cn1nc(c(c1c1nnc(n1Cc1ccco1)S)Cl)C
 32 34  0  0  0  0  0  0  0  0999 V2000
    0.5777   -2.2051    5.9292 C   0  0  0  0  0  0  0  0  0  0  0  0
    1.4933   -1.0804    5.9241 N   0  0  0  0  0  0  0  0  0  0  0  0
    2.4281   -0.9696    6.8766 N   0  0  0  0  0  0  0  0  0  0  0  0
    3.1726    0.0920    6.5641 C   0  0  0  0  0  0  0  0  0  0  0  0
    2.6892    0.6661    5.3641 C   0  0  0  0  0  0  0  0  0  0  0  0
    1.6052   -0.1131    4.9658 C   0  0  0  0  0  0  0  0  0  0  0  0
    0.7185   -0.0338    3.8130 C   0  0  0  0  0  0  0  0  0  0  0  0
   -0.5963   -0.0315    3.8437 N   0  0  0  0  0  0  0  0  0  0  0  0
   -1.0511   -0.0105    2.5572 N   0  0  0  0  0  0  0  0  0  0  0  0
    0.0000    0.0000    1.7552 C   0  0  0  0  0  0  0  0  0  0  0  0
    1.1525    0.0000    2.4983 N   0  0  0  0  0  0  0  0  0  0  0  0
    2.5123   -0.2156    1.9978 C   0  0  0  0  0  0  0  0  0  0  0  0
    2.8611   -1.6613    1.9307 C   0  0  0  0  0  0  0  0  0  0  0  0
    2.8831   -2.5752    0.9133 C   0  0  0  0  0  0  0  0  0  0  0  0
    3.2200   -3.8364    1.5108 C   0  0  0  0  0  0  0  0  0  0  0  0
    3.3696   -3.5927    2.8464 C   0  0  0  0  0  0  0  0  0  0  0  0
    3.1534   -2.2782    3.1112 O   0  0  0  0  0  0  0  0  0  0  0  0
    0.0000    0.0000    0.0000 S   0  0  0  0  0  0  0  0  0  0  0  0
    3.3027    2.0809    4.5785 Cl  0  0  0  0  0  0  0  0  0  0  0  0
    4.3128    0.5517    7.4103 C   0  0  0  0  0  0  0  0  0  0  0  0
    0.5372   -2.5891    6.9552 H   0  0  0  0  0  0  0  0  0  0  0  0
    0.9362   -2.9987    5.2536 H   0  0  0  0  0  0  0  0  0  0  0  0
   -0.4152   -1.8716    5.6040 H   0  0  0  0  0  0  0  0  0  0  0  0
    2.5726    0.2265    0.9949 H   0  0  0  0  0  0  0  0  0  0  0  0
    3.2061    0.3308    2.6486 H   0  0  0  0  0  0  0  0  0  0  0  0
    2.6692   -2.3710   -0.1332 H   0  0  0  0  0  0  0  0  0  0  0  0
    3.3356   -4.7947    1.0096 H   0  0  0  0  0  0  0  0  0  0  0  0
    3.6260   -4.2157    3.6989 H   0  0  0  0  0  0  0  0  0  0  0  0
   -2.3075    0.1514   -0.2098 Au  0  0  0  0  0  0  0  0  0  0  0  0
    4.4372   -0.1267    8.2649 H   0  0  0  0  0  0  0  0  0  0  0  0
    5.2519    0.5742    6.8343 H   0  0  0  0  0  0  0  0  0  0  0  0
    4.1412    1.5716    7.7911 H   0  0  0  0  0  0  0  0  0  0  0  0
  1 21  1  0  0  0  0
  2  1  1  0  0  0  0
  2  3  1  0  0  0  0
  4  3  2  0  0  0  0
  4 20  1  0  0  0  0
  5  4  1  0  0  0  0
  6  5  2  0  0  0  0
  6  2  1  0  0  0  0
  7  8  2  0  0  0  0
  7  6  1  0  0  0  0
  9  8  1  0  0  0  0
 10 11  1  0  0  0  0
 10  9  2  0  0  0  0
 11  7  1  0  0  0  0
 12 11  1  0  0  0  0
 12 25  1  0  0  0  0
 13 12  1  0  0  0  0
 13 17  1  0  0  0  0
 14 15  1  0  0  0  0
 14 13  2  0  0  0  0
 15 16  2  0  0  0  0
 16 17  1  0  0  0  0
 16 28  1  0  0  0  0
 18 10  1  0  0  0  0
 19  5  1  0  0  0  0
 20 32  1  0  0  0  0
 20 30  1  0  0  0  0
 22  1  1  0  0  0  0
 23  1  1  0  0  0  0
 24 12  1  0  0  0  0
 26 14  1  0  0  0  0
 27 15  1  0  0  0  0
 29 18  1  0  0  0  0
 31 20  1  0  0  0  0
M  END
