4005720.xyz
 OpenBabel07262113513D
Cc1ccc(o1)c1nc2ccccc2c(c1)c1nnc(n1C)S
 37 40  0  0  1  0  0  0  0  0999 V2000
    6.6893   -3.9740    3.9851 C   0  0  0  0  0  0  0  0  0  0  0  0
    6.2236   -3.1149    5.1036 C   0  0  0  0  0  0  0  0  0  0  0  0
    6.7145   -2.8459    6.3568 C   0  0  0  0  0  0  0  0  0  0  0  0
    5.8029   -1.9307    6.9684 C   0  0  0  0  0  0  0  0  0  0  0  0
    4.8118   -1.6993    6.0473 C   0  0  0  0  0  0  0  0  0  0  0  0
    5.0690   -2.4197    4.9117 O   0  0  0  0  0  0  0  0  0  0  0  0
    3.6158   -0.8695    6.0807 C   0  0  0  0  0  0  0  0  0  0  0  0
    3.3954   -0.1692    7.1801 N   0  0  0  0  0  0  0  0  0  0  0  0
    2.2848    0.6054    7.2488 C   0  0  0  0  0  0  0  0  0  0  0  0
    2.0631    1.3464    8.4436 C   0  0  0  0  0  0  0  0  0  0  0  0
    0.9555    2.1543    8.5748 C   0  0  0  0  0  0  0  0  0  0  0  0
    0.0188    2.2580    7.5173 C   0  0  0  0  0  0  0  0  0  0  0  0
    0.2010    1.5540    6.3442 C   0  0  0  0  0  0  0  0  0  0  0  0
    1.3333    0.7135    6.1761 C   0  0  1  0  0  0  0  0  0  0  0  0
    1.6063   -0.0442    4.9857 C   0  0  0  0  0  0  0  0  0  0  0  0
    2.7394   -0.8364    4.9588 C   0  0  0  0  0  0  0  0  0  0  0  0
    0.7172    0.0030    3.8175 C   0  0  0  0  0  0  0  0  0  0  0  0
   -0.5999    0.0195    3.8365 N   0  0  0  0  0  0  0  0  0  0  0  0
   -1.0528    0.0102    2.5550 N   0  0  0  0  0  0  0  0  0  0  0  0
    0.0000   -0.0000    1.7544 C   0  0  0  0  0  0  0  0  0  0  0  0
    1.1530   -0.0000    2.4968 N   0  0  0  0  0  0  0  0  0  0  0  0
    2.5006    0.1091    1.9660 C   0  0  0  0  0  0  0  0  0  0  0  0
    0.0000    0.0000    0.0000 S   0  0  0  0  0  0  0  0  0  0  0  0
    5.9411   -4.7442    3.7331 H   0  0  0  0  0  0  0  0  0  0  0  0
    6.8718   -3.3816    3.0726 H   0  0  0  0  0  0  0  0  0  0  0  0
    7.6248   -4.4781    4.2628 H   0  0  0  0  0  0  0  0  0  0  0  0
    7.6239   -3.2596    6.7871 H   0  0  0  0  0  0  0  0  0  0  0  0
    5.8481   -1.4866    7.9587 H   0  0  0  0  0  0  0  0  0  0  0  0
    2.8038    1.2424    9.2380 H   0  0  0  0  0  0  0  0  0  0  0  0
    0.7953    2.7180    9.4972 H   0  0  0  0  0  0  0  0  0  0  0  0
   -0.8586    2.8987    7.6327 H   0  0  0  0  0  0  0  0  0  0  0  0
   -0.5330    1.6097    5.5418 H   0  0  0  0  0  0  0  0  0  0  0  0
    2.9696   -1.4660    4.1014 H   0  0  0  0  0  0  0  0  0  0  0  0
    2.9104   -0.8774    1.6997 H   0  0  0  0  0  0  0  0  0  0  0  0
    2.4771    0.7370    1.0641 H   0  0  0  0  0  0  0  0  0  0  0  0
    3.1526    0.5762    2.7136 H   0  0  0  0  0  0  0  0  0  0  0  0
   -2.3009    0.2310   -0.2113 Au  0  0  0  0  0  0  0  0  0  0  0  0
  1 26  1  0  0  0  0
  1  2  1  0  0  0  0
  2  3  2  0  0  0  0
  3 27  1  0  0  0  0
  3  4  1  0  0  0  0
  4 28  1  0  0  0  0
  5  7  1  0  0  0  0
  5  4  2  0  0  0  0
  6  2  1  0  0  0  0
  6  5  1  0  0  0  0
  7  8  2  0  0  0  0
  8  9  2  0  0  0  0
  9 10  1  0  0  0  0
 10 11  2  0  0  0  0
 10 29  1  0  0  0  0
 11 30  1  0  0  0  0
 12 31  1  0  0  0  0
 12 11  1  0  0  0  0
 13 12  2  0  0  0  0
 14 15  1  6  0  0  0
 14 13  1  0  0  0  0
 14  9  1  0  0  0  0
 16 15  2  0  0  0  0
 16  7  1  0  0  0  0
 17 18  2  0  0  0  0
 17 15  1  0  0  0  0
 19 18  1  0  0  0  0
 20 21  1  0  0  0  0
 20 19  2  0  0  0  0
 21 17  1  0  0  0  0
 22 21  1  0  0  0  0
 22 36  1  0  0  0  0
 23 20  1  0  0  0  0
 24  1  1  0  0  0  0
 25  1  1  0  0  0  0
 32 13  1  0  0  0  0
 33 16  1  0  0  0  0
 34 22  1  0  0  0  0
 35 22  1  0  0  0  0
 37 23  1  0  0  0  0
M  RAD  1  14   2
M  END
