4013464.xyz
 OpenBabel07262113513D
Cn1nc(cc1C)n1c(S)nc2c(c1=O)c1CCCCc1s2
 38 41  0  0  1  0  0  0  0  0999 V2000
   -5.2551   -1.3864    0.4542 C   0  0  0  0  0  0  0  0  0  0  0  0
   -4.2789   -0.4564    0.9778 N   0  0  0  0  0  0  0  0  0  0  0  0
   -3.1442   -0.9156    1.5364 N   0  0  0  0  0  0  0  0  0  0  0  0
   -2.4579    0.1761    1.8639 C   0  0  0  0  0  0  0  0  0  0  0  0
   -3.1499    1.3531    1.5201 C   0  0  0  0  0  0  0  0  0  0  0  0
   -4.3314    0.9095    0.9420 C   0  0  0  0  0  0  0  0  0  0  0  0
   -5.4904    1.6572    0.3739 C   0  0  0  0  0  0  0  0  0  0  0  0
   -1.1919    0.0780    2.4992 N   0  0  0  0  0  0  0  0  0  0  0  0
    0.0000   -0.0000    1.7763 C   0  0  0  0  0  0  0  0  0  0  0  0
    0.0000    0.0000    0.0000 S   0  0  0  0  0  0  0  0  0  0  0  0
    1.1668   -0.0000    2.3530 N   0  0  0  0  0  0  0  0  0  0  0  0
    1.1925    0.0923    3.6988 C   0  0  0  0  0  0  0  0  0  0  0  0
    0.0807    0.1440    4.5399 C   0  0  2  0  0  0  0  0  0  0  0  0
   -1.2359    0.1400    3.9384 C   0  0  0  0  0  0  0  0  0  0  0  0
   -2.3049    0.2002    4.5157 O   0  0  0  0  0  0  0  0  0  0  0  0
    0.4224    0.2128    5.9321 C   0  0  0  0  0  0  0  0  0  0  0  0
   -0.5475    0.2805    7.0826 C   0  0  0  0  0  0  0  0  0  0  0  0
    0.1456   -0.0172    8.4179 C   0  0  0  0  0  0  0  0  0  0  0  0
    1.4789    0.7282    8.5401 C   0  0  0  0  0  0  0  0  0  0  0  0
    2.4693    0.2784    7.4556 C   0  0  0  0  0  0  0  0  0  0  0  0
    1.7852    0.2209    6.1205 C   0  0  0  0  0  0  0  0  0  0  0  0
    2.6795    0.1338    4.6147 S   0  0  0  0  0  0  0  0  0  0  0  0
   -5.1979   -1.4536   -0.6450 H   0  0  0  0  0  0  0  0  0  0  0  0
   -5.0469   -2.3709    0.8895 H   0  0  0  0  0  0  0  0  0  0  0  0
   -6.2707   -1.0762    0.7385 H   0  0  0  0  0  0  0  0  0  0  0  0
   -2.8334    2.3792    1.6817 H   0  0  0  0  0  0  0  0  0  0  0  0
   -6.4218    1.4492    0.9271 H   0  0  0  0  0  0  0  0  0  0  0  0
   -5.6671    1.3973   -0.6830 H   0  0  0  0  0  0  0  0  0  0  0  0
   -5.3019    2.7373    0.4289 H   0  0  0  0  0  0  0  0  0  0  0  0
   -1.3695   -1.8346   -0.4225 Au  0  0  0  0  0  0  0  0  0  0  0  0
   -1.0050    1.2862    7.1039 H   0  0  0  0  0  0  0  0  0  0  0  0
   -1.3860   -0.4075    6.9003 H   0  0  0  0  0  0  0  0  0  0  0  0
    0.3332   -1.1030    8.4989 H   0  0  0  0  0  0  0  0  0  0  0  0
   -0.5214    0.2495    9.2529 H   0  0  0  0  0  0  0  0  0  0  0  0
    1.9242    0.5711    9.5354 H   0  0  0  0  0  0  0  0  0  0  0  0
    1.2986    1.8129    8.4391 H   0  0  0  0  0  0  0  0  0  0  0  0
    2.8745   -0.7194    7.7088 H   0  0  0  0  0  0  0  0  0  0  0  0
    3.3376    0.9573    7.4178 H   0  0  0  0  0  0  0  0  0  0  0  0
  1 25  1  0  0  0  0
  1 24  1  0  0  0  0
  1  2  1  0  0  0  0
  2  3  1  0  0  0  0
  3  4  2  0  0  0  0
  4  8  1  0  0  0  0
  5 26  1  0  0  0  0
  5  4  1  0  0  0  0
  6  2  1  0  0  0  0
  6  5  2  0  0  0  0
  7 29  1  0  0  0  0
  7 27  1  0  0  0  0
  7  6  1  0  0  0  0
  8 14  1  0  0  0  0
  9 11  2  0  0  0  0
  9  8  1  0  0  0  0
 10  9  1  0  0  0  0
 11 12  2  0  0  0  0
 12 22  1  0  0  0  0
 13 12  1  6  0  0  0
 13 16  1  0  0  0  0
 14 15  2  0  0  0  0
 14 13  1  0  0  0  0
 16 21  2  0  0  0  0
 16 17  1  0  0  0  0
 17 31  1  0  0  0  0
 17 18  1  0  0  0  0
 18 33  1  0  0  0  0
 18 19  1  0  0  0  0
 18 34  1  0  0  0  0
 19 35  1  0  0  0  0
 20 37  1  0  0  0  0
 20 19  1  0  0  0  0
 21 20  1  0  0  0  0
 22 21  1  0  0  0  0
 23  1  1  0  0  0  0
 28  7  1  0  0  0  0
 30 10  1  0  0  0  0
 32 17  1  0  0  0  0
 36 19  1  0  0  0  0
 38 20  1  0  0  0  0
M  RAD  1  13   2
M  END
