40604928.xyz
 OpenBabel07262113513D
Brc1ccc(s1)Cn1c(N)nnc1S
 21 22  0  0  0  0  0  0  0  0999 V2000
    3.1192    5.6611    0.1653 Br  0  0  0  0  0  0  0  0  0  0  0  0
    3.0913    4.0604    1.1500 C   0  0  0  0  0  0  0  0  0  0  0  0
    3.4640    3.8896    2.4608 C   0  0  0  0  0  0  0  0  0  0  0  0
    3.3201    2.5338    2.8788 C   0  0  0  0  0  0  0  0  0  0  0  0
    2.8513    1.7027    1.8888 C   0  0  0  0  0  0  0  0  0  0  0  0
    2.5548    2.5830    0.4135 S   0  0  0  0  0  0  0  0  0  0  0  0
    2.5224    0.2430    2.0094 C   0  0  0  0  0  0  0  0  0  0  0  0
    1.1677   -0.0000    2.4929 N   0  0  0  0  0  0  0  0  0  0  0  0
    0.7397   -0.0099    3.8057 C   0  0  0  0  0  0  0  0  0  0  0  0
    1.6253    0.0842    4.8739 N   0  0  0  0  0  0  0  0  0  0  0  0
   -0.5653   -0.0376    3.8612 N   0  0  0  0  0  0  0  0  0  0  0  0
   -1.0364   -0.0206    2.5649 N   0  0  0  0  0  0  0  0  0  0  0  0
   -0.0000   -0.0000    1.7576 C   0  0  0  0  0  0  0  0  0  0  0  0
    0.0000    0.0000    0.0000 S   0  0  0  0  0  0  0  0  0  0  0  0
    3.8248    4.7013    3.0918 H   0  0  0  0  0  0  0  0  0  0  0  0
    3.5299    2.1766    3.8878 H   0  0  0  0  0  0  0  0  0  0  0  0
    3.2225   -0.2237    2.7153 H   0  0  0  0  0  0  0  0  0  0  0  0
    2.6334   -0.2773    1.0471 H   0  0  0  0  0  0  0  0  0  0  0  0
    1.1031    0.2059    5.7392 H   0  0  0  0  0  0  0  0  0  0  0  0
    2.2354   -0.7284    4.9656 H   0  0  0  0  0  0  0  0  0  0  0  0
   -2.3092   -0.1491   -0.1930 Au  0  0  0  0  0  0  0  0  0  0  0  0
  1  2  1  0  0  0  0
  2  3  2  0  0  0  0
  3  4  1  0  0  0  0
  3 15  1  0  0  0  0
  4 16  1  0  0  0  0
  5  7  1  0  0  0  0
  5  4  2  0  0  0  0
  6  2  1  0  0  0  0
  6  5  1  0  0  0  0
  7  8  1  0  0  0  0
  7 17  1  0  0  0  0
  8  9  1  0  0  0  0
  9 11  2  0  0  0  0
  9 10  1  0  0  0  0
 10 20  1  0  0  0  0
 10 19  1  0  0  0  0
 12 11  1  0  0  0  0
 13  8  1  0  0  0  0
 13 12  2  0  0  0  0
 14 13  1  0  0  0  0
 18  7  1  0  0  0  0
 21 14  1  0  0  0  0
M  END
