40604218.xyz
 OpenBabel07262113513D
CCN1CCCC1Cn1c(N)nnc1S
 32 33  0  0  1  0  0  0  0  0999 V2000
    0.9087   -3.8572    0.8095 C   0  0  0  0  0  0  0  0  0  0  0  0
    2.0738   -2.8795    0.9129 C   0  0  0  0  0  0  0  0  0  0  0  0
    2.4753   -2.6729    2.3074 N   0  0  0  0  0  0  0  0  0  0  0  0
    3.4292   -3.6820    2.7700 C   0  0  0  0  0  0  0  0  0  0  0  0
    4.8453   -3.1691    2.3615 C   0  0  0  0  0  0  0  0  0  0  0  0
    4.6437   -1.6476    2.1496 C   0  0  0  0  0  0  0  0  0  0  0  0
    3.1841   -1.4301    2.6167 C   0  0  1  0  0  0  0  0  0  0  0  0
    2.5345   -0.1452    2.1107 C   0  0  0  0  0  0  0  0  0  0  0  0
    1.1501   -0.0000    2.5321 N   0  0  0  0  0  0  0  0  0  0  0  0
    0.6639    0.0267    3.8045 C   0  0  0  0  0  0  0  0  0  0  0  0
    1.4412   -0.0025    4.9356 N   0  0  0  0  0  0  0  0  0  0  0  0
   -0.6620    0.0344    3.8022 N   0  0  0  0  0  0  0  0  0  0  0  0
   -1.0683    0.0213    2.5087 N   0  0  0  0  0  0  0  0  0  0  0  0
   -0.0000   -0.0000    1.7338 C   0  0  0  0  0  0  0  0  0  0  0  0
    0.0000    0.0000    0.0000 S   0  0  0  0  0  0  0  0  0  0  0  0
    0.0454   -3.4755    1.3755 H   0  0  0  0  0  0  0  0  0  0  0  0
    1.1693   -4.8464    1.2187 H   0  0  0  0  0  0  0  0  0  0  0  0
    0.6083   -3.9962   -0.2413 H   0  0  0  0  0  0  0  0  0  0  0  0
    1.7545   -1.9222    0.4821 H   0  0  0  0  0  0  0  0  0  0  0  0
    2.9174   -3.2281    0.2783 H   0  0  0  0  0  0  0  0  0  0  0  0
    3.3608   -3.7620    3.8679 H   0  0  0  0  0  0  0  0  0  0  0  0
    3.1881   -4.6701    2.3555 H   0  0  0  0  0  0  0  0  0  0  0  0
    5.1950   -3.6529    1.4377 H   0  0  0  0  0  0  0  0  0  0  0  0
    5.5912   -3.3877    3.1402 H   0  0  0  0  0  0  0  0  0  0  0  0
    5.3611   -1.0335    2.7153 H   0  0  0  0  0  0  0  0  0  0  0  0
    4.7467   -1.3762    1.0863 H   0  0  0  0  0  0  0  0  0  0  0  0
    3.1968   -1.3736    3.7186 H   0  0  0  0  0  0  0  0  0  0  0  0
    3.1212    0.7158    2.4744 H   0  0  0  0  0  0  0  0  0  0  0  0
    2.5376   -0.0834    1.0145 H   0  0  0  0  0  0  0  0  0  0  0  0
    2.2827    0.5656    4.9204 H   0  0  0  0  0  0  0  0  0  0  0  0
    0.8892    0.1313    5.7780 H   0  0  0  0  0  0  0  0  0  0  0  0
    0.2477    2.2442   -0.5398 Au  0  0  0  0  0  0  0  0  0  0  0  0
  1  2  1  0  0  0  0
  1 17  1  0  0  0  0
  1 16  1  0  0  0  0
  2  3  1  0  0  0  0
  3  7  1  0  0  0  0
  3  4  1  0  0  0  0
  4 21  1  0  0  0  0
  5  4  1  0  0  0  0
  5 24  1  0  0  0  0
  6  5  1  0  0  0  0
  6  7  1  0  0  0  0
  6 25  1  0  0  0  0
  7 27  1  1  0  0  0
  8 28  1  0  0  0  0
  8  9  1  0  0  0  0
  8  7  1  0  0  0  0
  9 10  1  0  0  0  0
 10 11  1  0  0  0  0
 11 31  1  0  0  0  0
 12 10  2  0  0  0  0
 13 12  1  0  0  0  0
 14 13  2  0  0  0  0
 14  9  1  0  0  0  0
 15 14  1  0  0  0  0
 18  1  1  0  0  0  0
 19  2  1  0  0  0  0
 20  2  1  0  0  0  0
 22  4  1  0  0  0  0
 23  5  1  0  0  0  0
 26  6  1  0  0  0  0
 29  8  1  0  0  0  0
 30 11  1  0  0  0  0
 32 15  1  0  0  0  0
M  END
