40604254.xyz
 OpenBabel07262113513D
CCC(n1c(N)nnc1S)(C)C
 26 26  0  0  0  0  0  0  0  0999 V2000
   -2.2293    2.6978    2.4524 C   0  0  0  0  0  0  0  0  0  0  0  0
   -3.0018    1.4860    2.9687 C   0  0  0  0  0  0  0  0  0  0  0  0
   -2.5618    0.1274    2.3701 C   0  0  0  0  0  0  0  0  0  0  0  0
   -1.0967   -0.0517    2.6254 N   0  0  0  0  0  0  0  0  0  0  0  0
   -0.5084   -0.0879    3.8868 C   0  0  0  0  0  0  0  0  0  0  0  0
   -1.2056   -0.0416    5.0918 N   0  0  0  0  0  0  0  0  0  0  0  0
    0.7946   -0.0622    3.7980 N   0  0  0  0  0  0  0  0  0  0  0  0
    1.1153   -0.0000    2.4714 N   0  0  0  0  0  0  0  0  0  0  0  0
   -0.0000   -0.0000    1.7695 C   0  0  0  0  0  0  0  0  0  0  0  0
    0.0000    0.0000    0.0000 S   0  0  0  0  0  0  0  0  0  0  0  0
   -3.3336   -1.0275    3.0318 C   0  0  0  0  0  0  0  0  0  0  0  0
   -2.8768    0.0827    0.8723 C   0  0  0  0  0  0  0  0  0  0  0  0
   -2.5930    3.6172    2.9362 H   0  0  0  0  0  0  0  0  0  0  0  0
   -1.1545    2.6108    2.6749 H   0  0  0  0  0  0  0  0  0  0  0  0
   -2.3340    2.8332    1.3651 H   0  0  0  0  0  0  0  0  0  0  0  0
   -4.0784    1.6002    2.7562 H   0  0  0  0  0  0  0  0  0  0  0  0
   -2.8968    1.4287    4.0617 H   0  0  0  0  0  0  0  0  0  0  0  0
   -0.5306    0.0903    5.8430 H   0  0  0  0  0  0  0  0  0  0  0  0
   -1.7470   -0.8836    5.2800 H   0  0  0  0  0  0  0  0  0  0  0  0
    2.3197   -0.0288   -0.1779 Au  0  0  0  0  0  0  0  0  0  0  0  0
   -2.9294   -1.9988    2.7092 H   0  0  0  0  0  0  0  0  0  0  0  0
   -4.3907   -0.9797    2.7321 H   0  0  0  0  0  0  0  0  0  0  0  0
   -3.3124   -0.9737    4.1272 H   0  0  0  0  0  0  0  0  0  0  0  0
   -3.9632    0.2025    0.7489 H   0  0  0  0  0  0  0  0  0  0  0  0
   -2.3865    0.8883    0.3130 H   0  0  0  0  0  0  0  0  0  0  0  0
   -2.5870   -0.8786    0.4256 H   0  0  0  0  0  0  0  0  0  0  0  0
  1 14  1  0  0  0  0
  1 13  1  0  0  0  0
  1  2  1  0  0  0  0
  2 17  1  0  0  0  0
  3  4  1  0  0  0  0
  3  2  1  0  0  0  0
  3 11  1  0  0  0  0
  4  5  1  0  0  0  0
  5  6  1  0  0  0  0
  6 19  1  0  0  0  0
  6 18  1  0  0  0  0
  7  5  2  0  0  0  0
  8  7  1  0  0  0  0
  9  8  2  0  0  0  0
  9  4  1  0  0  0  0
 10  9  1  0  0  0  0
 11 23  1  0  0  0  0
 12  3  1  0  0  0  0
 15  1  1  0  0  0  0
 16  2  1  0  0  0  0
 20 10  1  0  0  0  0
 21 11  1  0  0  0  0
 22 11  1  0  0  0  0
 24 12  1  0  0  0  0
 25 12  1  0  0  0  0
 26 12  1  0  0  0  0
M  END
