40604166.xyz
 OpenBabel07262113513D
Nc1nnc(n1c1cccc2c1nccc2)S
 26 28  0  0  1  0  0  0  0  0999 V2000
   -1.5318    0.1281    4.8897 N   0  0  0  0  0  0  0  0  0  0  0  0
   -0.7092    0.1178    3.7958 C   0  0  0  0  0  0  0  0  0  0  0  0
    0.6132    0.0942    3.8179 N   0  0  0  0  0  0  0  0  0  0  0  0
    1.0461   -0.0000    2.5301 N   0  0  0  0  0  0  0  0  0  0  0  0
   -0.0000   -0.0000    1.7319 C   0  0  0  0  0  0  0  0  0  0  0  0
   -1.1652    0.0580    2.5092 N   0  0  0  0  0  0  0  0  0  0  0  0
   -2.5042    0.0983    2.0536 C   0  0  0  0  0  0  0  0  0  0  0  0
   -3.3148   -1.0139    2.1621 C   0  0  0  0  0  0  0  0  0  0  0  0
   -4.6432   -0.9828    1.6741 C   0  0  0  0  0  0  0  0  0  0  0  0
   -5.1364    0.1530    1.0676 C   0  0  0  0  0  0  0  0  0  0  0  0
   -4.3265    1.3134    0.9429 C   0  0  2  0  0  0  0  0  0  0  0  0
   -2.9896    1.3026    1.4564 C   0  0  0  0  0  0  0  0  0  0  0  0
   -2.1711    2.3821    1.3964 N   0  0  0  0  0  0  0  0  0  0  0  0
   -2.6210    3.4738    0.8204 C   0  0  0  0  0  0  0  0  0  0  0  0
   -3.9203    3.5924    0.2579 C   0  0  0  0  0  0  0  0  0  0  0  0
   -4.7717    2.5134    0.3267 C   0  0  0  0  0  0  0  0  0  0  0  0
    0.0000    0.0000    0.0000 S   0  0  0  0  0  0  0  0  0  0  0  0
   -2.4150    0.6168    4.7815 H   0  0  0  0  0  0  0  0  0  0  0  0
   -1.0409    0.3486    5.7504 H   0  0  0  0  0  0  0  0  0  0  0  0
   -2.9119   -1.9185    2.6203 H   0  0  0  0  0  0  0  0  0  0  0  0
   -5.2690   -1.8726    1.7687 H   0  0  0  0  0  0  0  0  0  0  0  0
   -6.1558    0.1756    0.6744 H   0  0  0  0  0  0  0  0  0  0  0  0
   -1.9367    4.3301    0.7853 H   0  0  0  0  0  0  0  0  0  0  0  0
   -4.2260    4.5292   -0.2120 H   0  0  0  0  0  0  0  0  0  0  0  0
   -5.7830    2.5618   -0.0854 H   0  0  0  0  0  0  0  0  0  0  0  0
   -0.7691   -2.1313   -0.4999 Au  0  0  0  0  0  0  0  0  0  0  0  0
  1 19  1  0  0  0  0
  2  3  2  0  0  0  0
  2  1  1  0  0  0  0
  4  3  1  0  0  0  0
  5  6  1  0  0  0  0
  5  4  2  0  0  0  0
  6  2  1  0  0  0  0
  7  8  2  0  0  0  0
  7  6  1  0  0  0  0
  8 20  1  0  0  0  0
  9 21  1  0  0  0  0
  9  8  1  0  0  0  0
 10  9  2  0  0  0  0
 11 16  1  1  0  0  0
 11 10  1  0  0  0  0
 11 12  1  0  0  0  0
 12  7  1  0  0  0  0
 13 12  2  0  0  0  0
 14 13  2  0  0  0  0
 15 16  2  0  0  0  0
 15 14  1  0  0  0  0
 17  5  1  0  0  0  0
 18  1  1  0  0  0  0
 22 10  1  0  0  0  0
 23 14  1  0  0  0  0
 24 15  1  0  0  0  0
 25 16  1  0  0  0  0
 26 17  1  0  0  0  0
M  RAD  1  11   2
M  END
