40860485.xyz
 OpenBabel07262113513D
CC1CCC(C1C)n1nnnc1S
 27 28  0  0  1  0  0  0  0  0999 V2000
   -4.6983   -1.9357   -0.2965 C   0  0  0  0  0  0  0  0  0  0  0  0
   -4.2201   -0.9351    0.7480 C   0  0  2  0  0  0  0  0  0  0  0  0
   -3.8459    0.4457    0.1819 C   0  0  0  0  0  0  0  0  0  0  0  0
   -3.0003    1.1213    1.2803 C   0  0  0  0  0  0  0  0  0  0  0  0
   -2.5233   -0.0375    2.1974 C   0  0  1  0  0  0  0  0  0  0  0  0
   -2.9405   -1.3470    1.4965 C   0  0  1  0  0  0  0  0  0  0  0  0
   -3.0582   -2.5313    2.4454 C   0  0  0  0  0  0  0  0  0  0  0  0
   -1.1060    0.0002    2.5331 N   0  0  0  0  0  0  0  0  0  0  0  0
   -0.6965   -0.0069    3.8277 N   0  0  0  0  0  0  0  0  0  0  0  0
    0.5860   -0.0048    3.8123 N   0  0  0  0  0  0  0  0  0  0  0  0
    1.0610   -0.0000    2.5520 N   0  0  0  0  0  0  0  0  0  0  0  0
    0.0000    0.0000    1.7506 C   0  0  0  0  0  0  0  0  0  0  0  0
    0.0000    0.0000    0.0000 S   0  0  0  0  0  0  0  0  0  0  0  0
   -3.9124   -2.1193   -1.0485 H   0  0  0  0  0  0  0  0  0  0  0  0
   -4.9630   -2.9034    0.1575 H   0  0  0  0  0  0  0  0  0  0  0  0
   -5.5891   -1.5625   -0.8262 H   0  0  0  0  0  0  0  0  0  0  0  0
   -5.0191   -0.7984    1.5030 H   0  0  0  0  0  0  0  0  0  0  0  0
   -3.2372    0.3025   -0.7266 H   0  0  0  0  0  0  0  0  0  0  0  0
   -4.7261    1.0391   -0.1074 H   0  0  0  0  0  0  0  0  0  0  0  0
   -3.5911    1.8387    1.8683 H   0  0  0  0  0  0  0  0  0  0  0  0
   -2.1493    1.6765    0.8617 H   0  0  0  0  0  0  0  0  0  0  0  0
   -3.0204    0.0208    3.1752 H   0  0  0  0  0  0  0  0  0  0  0  0
   -2.1761   -1.5734    0.7301 H   0  0  0  0  0  0  0  0  0  0  0  0
   -3.8528   -2.3591    3.1907 H   0  0  0  0  0  0  0  0  0  0  0  0
   -2.1169   -2.6948    2.9933 H   0  0  0  0  0  0  0  0  0  0  0  0
   -3.2955   -3.4597    1.9040 H   0  0  0  0  0  0  0  0  0  0  0  0
    2.3071    0.0458   -0.2499 Au  0  0  0  0  0  0  0  0  0  0  0  0
  1 15  1  0  0  0  0
  1  2  1  0  0  0  0
  2  6  1  1  0  0  0
  2 17  1  0  0  0  0
  3  2  1  0  0  0  0
  3  4  1  0  0  0  0
  4 20  1  0  0  0  0
  4  5  1  0  0  0  0
  5  6  1  6  0  0  0
  5  8  1  0  0  0  0
  5 22  1  0  0  0  0
  6 23  1  6  0  0  0
  6  7  1  0  0  0  0
  7 25  1  0  0  0  0
  7 24  1  0  0  0  0
  8  9  1  0  0  0  0
 10  9  2  0  0  0  0
 11 10  1  0  0  0  0
 12  8  1  0  0  0  0
 12 11  2  0  0  0  0
 13 12  1  0  0  0  0
 14  1  1  0  0  0  0
 16  1  1  0  0  0  0
 18  3  1  0  0  0  0
 19  3  1  0  0  0  0
 21  4  1  0  0  0  0
 26  7  1  0  0  0  0
 27 13  1  0  0  0  0
M  END
