40902424.xyz
 OpenBabel07262113513D
Cc1cc(F)c(c(c1)S)N
 18 18  0  0  0  0  0  0  0  0999 V2000
   -2.5634   -0.2378    4.6142 C   0  0  0  0  0  0  0  0  0  0  0  0
   -1.2600   -0.1507    3.8621 C   0  0  0  0  0  0  0  0  0  0  0  0
   -0.0334   -0.1627    4.5599 C   0  0  0  0  0  0  0  0  0  0  0  0
    1.1596   -0.0833    3.8714 C   0  0  0  0  0  0  0  0  0  0  0  0
    2.3329   -0.0951    4.5437 F   0  0  0  0  0  0  0  0  0  0  0  0
    1.2327    0.0000    2.4670 C   0  0  0  0  0  0  0  0  0  0  0  0
   -0.0000    0.0000    1.7651 C   0  0  0  0  0  0  0  0  0  0  0  0
   -1.2177   -0.0599    2.4728 C   0  0  0  0  0  0  0  0  0  0  0  0
    0.0000    0.0000    0.0000 S   0  0  0  0  0  0  0  0  0  0  0  0
    2.4418    0.1469    1.8412 N   0  0  0  0  0  0  0  0  0  0  0  0
   -3.4229   -0.1601    3.9329 H   0  0  0  0  0  0  0  0  0  0  0  0
   -2.6512   -1.1935    5.1583 H   0  0  0  0  0  0  0  0  0  0  0  0
   -2.6510    0.5680    5.3619 H   0  0  0  0  0  0  0  0  0  0  0  0
   -0.0010   -0.2306    5.6497 H   0  0  0  0  0  0  0  0  0  0  0  0
   -2.1443   -0.0404    1.8960 H   0  0  0  0  0  0  0  0  0  0  0  0
    0.7126    2.1511   -0.5105 Au  0  0  0  0  0  0  0  0  0  0  0  0
    3.2682   -0.0822    2.3795 H   0  0  0  0  0  0  0  0  0  0  0  0
    2.4572   -0.0773    0.8510 H   0  0  0  0  0  0  0  0  0  0  0  0
  1 12  1  0  0  0  0
  1 13  1  0  0  0  0
  2  3  1  0  0  0  0
  2  1  1  0  0  0  0
  3 14  1  0  0  0  0
  4  5  1  0  0  0  0
  4  3  2  0  0  0  0
  6  4  1  0  0  0  0
  7  6  2  0  0  0  0
  7  8  1  0  0  0  0
  8  2  2  0  0  0  0
  9  7  1  0  0  0  0
 10 17  1  0  0  0  0
 10  6  1  0  0  0  0
 11  1  1  0  0  0  0
 15  8  1  0  0  0  0
 16  9  1  0  0  0  0
 18 10  1  0  0  0  0
M  END
