40964876.xyz
 OpenBabel07262113513D
COc1cc(N)c(c(c1OC)OC)S
 27 27  0  0  0  0  0  0  0  0999 V2000
    1.0471   -0.3325    6.6929 C   0  0  0  0  0  0  0  0  0  0  0  0
   -0.1224   -0.3047    5.9068 O   0  0  0  0  0  0  0  0  0  0  0  0
   -0.0111   -0.2077    4.5647 C   0  0  0  0  0  0  0  0  0  0  0  0
    1.2029   -0.1188    3.8807 C   0  0  0  0  0  0  0  0  0  0  0  0
    1.2276    0.0000    2.4761 C   0  0  0  0  0  0  0  0  0  0  0  0
    2.4098    0.1660    1.8090 N   0  0  0  0  0  0  0  0  0  0  0  0
    0.0000    0.0000    1.7511 C   0  0  0  0  0  0  0  0  0  0  0  0
   -1.2225   -0.0416    2.4701 C   0  0  0  0  0  0  0  0  0  0  0  0
   -1.2385   -0.1843    3.8565 C   0  0  0  0  0  0  0  0  0  0  0  0
   -2.4235   -0.2958    4.5313 O   0  0  0  0  0  0  0  0  0  0  0  0
   -2.9907    0.9415    4.9341 C   0  0  0  0  0  0  0  0  0  0  0  0
   -2.3957    0.0936    1.7990 O   0  0  0  0  0  0  0  0  0  0  0  0
   -3.1691   -1.0881    1.6389 C   0  0  0  0  0  0  0  0  0  0  0  0
    0.0000    0.0000    0.0000 S   0  0  0  0  0  0  0  0  0  0  0  0
    1.6405    0.5918    6.5759 H   0  0  0  0  0  0  0  0  0  0  0  0
    1.6848   -1.1989    6.4433 H   0  0  0  0  0  0  0  0  0  0  0  0
    0.7195   -0.4184    7.7371 H   0  0  0  0  0  0  0  0  0  0  0  0
    2.1478   -0.1179    4.4226 H   0  0  0  0  0  0  0  0  0  0  0  0
    3.2723   -0.0791    2.2759 H   0  0  0  0  0  0  0  0  0  0  0  0
    2.3729    0.0478    0.8006 H   0  0  0  0  0  0  0  0  0  0  0  0
   -3.1978    1.5852    4.0620 H   0  0  0  0  0  0  0  0  0  0  0  0
   -2.3231    1.4760    5.6324 H   0  0  0  0  0  0  0  0  0  0  0  0
   -3.9352    0.7121    5.4477 H   0  0  0  0  0  0  0  0  0  0  0  0
   -4.0767   -0.7994    1.0915 H   0  0  0  0  0  0  0  0  0  0  0  0
   -3.4465   -1.5173    2.6148 H   0  0  0  0  0  0  0  0  0  0  0  0
   -2.6158   -1.8361    1.0445 H   0  0  0  0  0  0  0  0  0  0  0  0
    0.2033    2.2461   -0.5608 Au  0  0  0  0  0  0  0  0  0  0  0  0
  1 17  1  0  0  0  0
  2  1  1  0  0  0  0
  3  2  1  0  0  0  0
  4 18  1  0  0  0  0
  4  3  1  0  0  0  0
  5  4  2  0  0  0  0
  6 19  1  0  0  0  0
  6  5  1  0  0  0  0
  7  8  2  0  0  0  0
  7  5  1  0  0  0  0
  8  9  1  0  0  0  0
  9 10  1  0  0  0  0
  9  3  2  0  0  0  0
 10 11  1  0  0  0  0
 11 23  1  0  0  0  0
 11 22  1  0  0  0  0
 12  8  1  0  0  0  0
 13 12  1  0  0  0  0
 13 25  1  0  0  0  0
 14  7  1  0  0  0  0
 15  1  1  0  0  0  0
 16  1  1  0  0  0  0
 20  6  1  0  0  0  0
 21 11  1  0  0  0  0
 24 13  1  0  0  0  0
 26 13  1  0  0  0  0
 27 14  1  0  0  0  0
M  END
