40964858.xyz
 OpenBabel07262113513D
COc1cc(OC)c(c(c1)S)N
 23 23  0  0  0  0  0  0  0  0999 V2000
    3.6117   -0.0261    3.9823 C   0  0  0  0  0  0  0  0  0  0  0  0
    2.3601   -0.1009    4.6204 O   0  0  0  0  0  0  0  0  0  0  0  0
    1.2395   -0.0763    3.8468 C   0  0  0  0  0  0  0  0  0  0  0  0
    0.0186   -0.1378    4.5581 C   0  0  0  0  0  0  0  0  0  0  0  0
   -1.1881   -0.1133    3.8792 C   0  0  0  0  0  0  0  0  0  0  0  0
   -2.4157   -0.1634    4.4702 O   0  0  0  0  0  0  0  0  0  0  0  0
   -2.4877   -0.2524    5.8744 C   0  0  0  0  0  0  0  0  0  0  0  0
   -1.2280   -0.0407    2.4573 C   0  0  0  0  0  0  0  0  0  0  0  0
   -0.0000   -0.0000    1.7618 C   0  0  0  0  0  0  0  0  0  0  0  0
    1.2314   -0.0000    2.4616 C   0  0  0  0  0  0  0  0  0  0  0  0
    0.0000    0.0000    0.0000 S   0  0  0  0  0  0  0  0  0  0  0  0
   -2.4404    0.0673    1.8256 N   0  0  0  0  0  0  0  0  0  0  0  0
    4.3726   -0.0548    4.7737 H   0  0  0  0  0  0  0  0  0  0  0  0
    3.7242    0.9119    3.4083 H   0  0  0  0  0  0  0  0  0  0  0  0
    3.7742   -0.8774    3.2961 H   0  0  0  0  0  0  0  0  0  0  0  0
    0.0696   -0.1987    5.6438 H   0  0  0  0  0  0  0  0  0  0  0  0
   -2.0201    0.6222    6.3607 H   0  0  0  0  0  0  0  0  0  0  0  0
   -3.5538   -0.2810    6.1353 H   0  0  0  0  0  0  0  0  0  0  0  0
   -1.9985   -1.1692    6.2495 H   0  0  0  0  0  0  0  0  0  0  0  0
    2.1482    0.0522    1.8783 H   0  0  0  0  0  0  0  0  0  0  0  0
   -0.8062    2.1241   -0.5144 Au  0  0  0  0  0  0  0  0  0  0  0  0
   -2.4444   -0.1634    0.8371 H   0  0  0  0  0  0  0  0  0  0  0  0
   -3.2525   -0.1960    2.3702 H   0  0  0  0  0  0  0  0  0  0  0  0
  1  2  1  0  0  0  0
  1 13  1  0  0  0  0
  3  4  1  0  0  0  0
  3  2  1  0  0  0  0
  4 16  1  0  0  0  0
  5  6  1  0  0  0  0
  5  4  2  0  0  0  0
  6  7  1  0  0  0  0
  7 18  1  0  0  0  0
  7 19  1  0  0  0  0
  7 17  1  0  0  0  0
  8  5  1  0  0  0  0
  9  8  2  0  0  0  0
  9 10  1  0  0  0  0
 10  3  2  0  0  0  0
 11  9  1  0  0  0  0
 12 23  1  0  0  0  0
 12  8  1  0  0  0  0
 14  1  1  0  0  0  0
 15  1  1  0  0  0  0
 20 10  1  0  0  0  0
 21 11  1  0  0  0  0
 22 12  1  0  0  0  0
M  END
