41383470.xyz
 OpenBabel07262113513D
SCC(=O)N1CCCC(C1)C(F)(F)F
 26 26  0  0  1  0  0  0  0  0999 V2000
    0.0000    0.0000    0.0000 S   0  0  0  0  0  0  0  0  0  0  0  0
    0.0000   -0.0000    1.8435 C   0  0  0  0  0  0  0  0  0  0  0  0
    1.4049   -0.0000    2.4326 C   0  0  0  0  0  0  0  0  0  0  0  0
    1.8878   -1.0502    2.8341 O   0  0  0  0  0  0  0  0  0  0  0  0
    2.1019    1.1800    2.4576 N   0  0  0  0  0  0  0  0  0  0  0  0
    3.5160    1.1467    2.8239 C   0  0  0  0  0  0  0  0  0  0  0  0
    4.3835    1.3433    1.5784 C   0  0  0  0  0  0  0  0  0  0  0  0
    4.0118    2.6371    0.8483 C   0  0  0  0  0  0  0  0  0  0  0  0
    2.5059    2.6832    0.5533 C   0  0  1  0  0  0  0  0  0  0  0  0
    1.6846    2.4210    1.8291 C   0  0  0  0  0  0  0  0  0  0  0  0
    2.0965    3.9930   -0.0875 C   0  0  0  0  0  0  0  0  0  0  0  0
    2.7557    4.2098   -1.2384 F   0  0  0  0  0  0  0  0  0  0  0  0
    2.3442    5.0479    0.7181 F   0  0  0  0  0  0  0  0  0  0  0  0
    0.7796    4.0154   -0.3679 F   0  0  0  0  0  0  0  0  0  0  0  0
    1.4186   -1.7642   -0.4199 Au  0  0  0  0  0  0  0  0  0  0  0  0
   -0.5891    0.8864    2.1238 H   0  0  0  0  0  0  0  0  0  0  0  0
   -0.5062   -0.8941    2.2248 H   0  0  0  0  0  0  0  0  0  0  0  0
    3.7085    1.9540    3.5530 H   0  0  0  0  0  0  0  0  0  0  0  0
    3.7120    0.1832    3.3067 H   0  0  0  0  0  0  0  0  0  0  0  0
    5.4480    1.3572    1.8616 H   0  0  0  0  0  0  0  0  0  0  0  0
    4.2364    0.4788    0.9085 H   0  0  0  0  0  0  0  0  0  0  0  0
    4.2775    3.5053    1.4762 H   0  0  0  0  0  0  0  0  0  0  0  0
    4.5783    2.7369   -0.0897 H   0  0  0  0  0  0  0  0  0  0  0  0
    2.2405    1.8959   -0.1704 H   0  0  0  0  0  0  0  0  0  0  0  0
    0.6199    2.3951    1.5823 H   0  0  0  0  0  0  0  0  0  0  0  0
    1.8405    3.2513    2.5400 H   0  0  0  0  0  0  0  0  0  0  0  0
  1  2  1  0  0  0  0
  2 16  1  0  0  0  0
  2 17  1  0  0  0  0
  2  3  1  0  0  0  0
  3  5  1  0  0  0  0
  3  4  2  0  0  0  0
  5  6  1  0  0  0  0
  6 19  1  0  0  0  0
  6 18  1  0  0  0  0
  7 20  1  0  0  0  0
  7  6  1  0  0  0  0
  8 22  1  0  0  0  0
  8  7  1  0  0  0  0
  9 24  1  6  0  0  0
  9  8  1  0  0  0  0
  9 10  1  0  0  0  0
 10  5  1  0  0  0  0
 10 26  1  0  0  0  0
 11  9  1  0  0  0  0
 11 13  1  0  0  0  0
 12 11  1  0  0  0  0
 14 11  1  0  0  0  0
 15  1  1  0  0  0  0
 21  7  1  0  0  0  0
 23  8  1  0  0  0  0
 25 10  1  0  0  0  0
M  END
