41382784.xyz
 OpenBabel07262113513D
CC1N(CCc2c1ccs2)C(=O)CS
 27 28  0  0  1  0  0  0  0  0999 V2000
    1.1963   -3.1440    1.6305 C   0  0  0  0  0  0  0  0  0  0  0  0
    1.1855   -2.4377    2.9970 C   0  0  2  0  0  0  0  0  0  0  0  0
    1.9274   -1.1571    2.9503 N   0  0  0  0  0  0  0  0  0  0  0  0
    3.2759   -1.0265    3.5260 C   0  0  0  0  0  0  0  0  0  0  0  0
    4.0084   -2.3617    3.6678 C   0  0  0  0  0  0  0  0  0  0  0  0
    3.0931   -3.3368    4.3332 C   0  0  0  0  0  0  0  0  0  0  0  0
    1.7484   -3.3439    4.0625 C   0  0  0  0  0  0  0  0  0  0  0  0
    1.0389   -4.3388    4.8065 C   0  0  0  0  0  0  0  0  0  0  0  0
    1.8635   -5.0594    5.6332 C   0  0  0  0  0  0  0  0  0  0  0  0
    3.5129   -4.5333    5.5144 S   0  0  0  0  0  0  0  0  0  0  0  0
    1.4007   -0.0000    2.4454 C   0  0  0  0  0  0  0  0  0  0  0  0
    2.0399    1.0481    2.4607 O   0  0  0  0  0  0  0  0  0  0  0  0
   -0.0000   -0.0000    1.8418 C   0  0  0  0  0  0  0  0  0  0  0  0
    0.0000    0.0000    0.0000 S   0  0  0  0  0  0  0  0  0  0  0  0
    0.8130   -2.4882    0.8351 H   0  0  0  0  0  0  0  0  0  0  0  0
    2.2237   -3.4351    1.3648 H   0  0  0  0  0  0  0  0  0  0  0  0
    0.5835   -4.0577    1.6709 H   0  0  0  0  0  0  0  0  0  0  0  0
    0.1436   -2.2153    3.2723 H   0  0  0  0  0  0  0  0  0  0  0  0
    3.8392   -0.3320    2.8896 H   0  0  0  0  0  0  0  0  0  0  0  0
    3.1996   -0.5503    4.5193 H   0  0  0  0  0  0  0  0  0  0  0  0
    4.9310   -2.1998    4.2449 H   0  0  0  0  0  0  0  0  0  0  0  0
    4.3159   -2.7354    2.6744 H   0  0  0  0  0  0  0  0  0  0  0  0
   -0.0370   -4.5074    4.7344 H   0  0  0  0  0  0  0  0  0  0  0  0
    1.5957   -5.8642    6.3156 H   0  0  0  0  0  0  0  0  0  0  0  0
   -0.5071    0.9006    2.2119 H   0  0  0  0  0  0  0  0  0  0  0  0
   -0.6073   -0.8742    2.1084 H   0  0  0  0  0  0  0  0  0  0  0  0
    1.3375    1.8345   -0.4032 Au  0  0  0  0  0  0  0  0  0  0  0  0
  1 17  1  0  0  0  0
  1  2  1  0  0  0  0
  2 18  1  1  0  0  0
  2  7  1  0  0  0  0
  3  2  1  0  0  0  0
  3  4  1  0  0  0  0
  4  5  1  0  0  0  0
  4 20  1  0  0  0  0
  5 21  1  0  0  0  0
  5  6  1  0  0  0  0
  6 10  1  0  0  0  0
  7  6  2  0  0  0  0
  7  8  1  0  0  0  0
  8  9  2  0  0  0  0
  9 24  1  0  0  0  0
 10  9  1  0  0  0  0
 11 12  2  0  0  0  0
 11  3  1  0  0  0  0
 13 26  1  0  0  0  0
 13 25  1  0  0  0  0
 13 11  1  0  0  0  0
 14 13  1  0  0  0  0
 15  1  1  0  0  0  0
 16  1  1  0  0  0  0
 19  4  1  0  0  0  0
 22  5  1  0  0  0  0
 23  8  1  0  0  0  0
 27 14  1  0  0  0  0
M  END
