41382788.xyz
 OpenBabel07262113513D
SCC(=O)N(C1CC1)CC(F)(F)F
 23 23  0  0  0  0  0  0  0  0999 V2000
    0.0000    0.0000    0.0000 S   0  0  0  0  0  0  0  0  0  0  0  0
   -0.0000    0.0000    1.8241 C   0  0  0  0  0  0  0  0  0  0  0  0
    1.3698    0.0000    2.5183 C   0  0  0  0  0  0  0  0  0  0  0  0
    2.3765    0.4210    1.9729 O   0  0  0  0  0  0  0  0  0  0  0  0
    1.4049   -0.4519    3.8189 N   0  0  0  0  0  0  0  0  0  0  0  0
    2.6507   -0.5063    4.5785 C   0  0  0  0  0  0  0  0  0  0  0  0
    3.7148    0.5591    4.5653 C   0  0  0  0  0  0  0  0  0  0  0  0
    4.0030   -0.8185    4.0046 C   0  0  0  0  0  0  0  0  0  0  0  0
    0.2200   -0.8342    4.5550 C   0  0  0  0  0  0  0  0  0  0  0  0
   -0.0266   -2.3387    4.5934 C   0  0  0  0  0  0  0  0  0  0  0  0
   -1.1376   -2.5988    5.3009 F   0  0  0  0  0  0  0  0  0  0  0  0
   -0.1933   -2.8500    3.3625 F   0  0  0  0  0  0  0  0  0  0  0  0
    0.9908   -2.9985    5.1681 F   0  0  0  0  0  0  0  0  0  0  0  0
    1.4730    1.6944   -0.5025 Au  0  0  0  0  0  0  0  0  0  0  0  0
   -0.5808    0.8558    2.2089 H   0  0  0  0  0  0  0  0  0  0  0  0
   -0.5544   -0.9148    2.0713 H   0  0  0  0  0  0  0  0  0  0  0  0
    2.4566   -0.9626    5.5495 H   0  0  0  0  0  0  0  0  0  0  0  0
    4.1438    0.8475    5.5293 H   0  0  0  0  0  0  0  0  0  0  0  0
    3.6214    1.3617    3.8340 H   0  0  0  0  0  0  0  0  0  0  0  0
    4.6312   -1.5078    4.5758 H   0  0  0  0  0  0  0  0  0  0  0  0
    4.0973   -0.8855    2.9215 H   0  0  0  0  0  0  0  0  0  0  0  0
    0.3028   -0.4960    5.5989 H   0  0  0  0  0  0  0  0  0  0  0  0
   -0.6818   -0.3655    4.1452 H   0  0  0  0  0  0  0  0  0  0  0  0
  1  2  1  0  0  0  0
  2 16  1  0  0  0  0
  2 15  1  0  0  0  0
  2  3  1  0  0  0  0
  3  5  1  0  0  0  0
  4  3  2  0  0  0  0
  5  9  1  0  0  0  0
  5  6  1  0  0  0  0
  6 17  1  0  0  0  0
  7  6  1  0  0  0  0
  7 18  1  0  0  0  0
  8  7  1  0  0  0  0
  8 20  1  0  0  0  0
  8  6  1  0  0  0  0
  9 10  1  0  0  0  0
  9 22  1  0  0  0  0
 10 13  1  0  0  0  0
 10 11  1  0  0  0  0
 12 10  1  0  0  0  0
 14  1  1  0  0  0  0
 19  7  1  0  0  0  0
 21  8  1  0  0  0  0
 23  9  1  0  0  0  0
M  END
