41680522.xyz
 OpenBabel07262113513D
NC(=O)C(n1c(S)nc2c1ccc(c2)I)C
 26 27  0  0  1  0  0  0  0  0999 V2000
    2.8618    2.2408    2.5936 N   0  0  0  0  0  0  0  0  0  0  0  0
    3.4520    1.0214    2.4930 C   0  0  0  0  0  0  0  0  0  0  0  0
    4.6099    0.8045    2.7922 O   0  0  0  0  0  0  0  0  0  0  0  0
    2.5462   -0.0845    1.9028 C   0  0  2  0  0  0  0  0  0  0  0  0
    1.1996    0.0000    2.4566 N   0  0  0  0  0  0  0  0  0  0  0  0
   -0.0000    0.0000    1.7599 C   0  0  0  0  0  0  0  0  0  0  0  0
    0.0000    0.0000    0.0000 S   0  0  0  0  0  0  0  0  0  0  0  0
   -1.0533    0.0040    2.5470 N   0  0  0  0  0  0  0  0  0  0  0  0
   -0.5529   -0.0101    3.8387 C   0  0  0  0  0  0  0  0  0  0  0  0
    0.8650   -0.0244    3.8086 C   0  0  0  0  0  0  0  0  0  0  0  0
    1.6370   -0.0342    4.9718 C   0  0  0  0  0  0  0  0  0  0  0  0
    0.9543   -0.0325    6.1906 C   0  0  0  0  0  0  0  0  0  0  0  0
   -0.4543   -0.0186    6.2234 C   0  0  0  0  0  0  0  0  0  0  0  0
   -1.2310   -0.0062    5.0655 C   0  0  0  0  0  0  0  0  0  0  0  0
   -1.4272   -0.0158    8.1164 I   0  0  0  0  0  0  0  0  0  0  0  0
    3.1573   -1.4717    2.0553 C   0  0  0  0  0  0  0  0  0  0  0  0
    1.8678    2.3620    2.4500 H   0  0  0  0  0  0  0  0  0  0  0  0
    3.3921    2.9946    3.0139 H   0  0  0  0  0  0  0  0  0  0  0  0
    2.4483    0.1541    0.8304 H   0  0  0  0  0  0  0  0  0  0  0  0
   -2.2966    0.1468   -0.2591 Au  0  0  0  0  0  0  0  0  0  0  0  0
    2.7277   -0.0428    4.9459 H   0  0  0  0  0  0  0  0  0  0  0  0
    1.5195   -0.0420    7.1232 H   0  0  0  0  0  0  0  0  0  0  0  0
   -2.3204    0.0057    5.0948 H   0  0  0  0  0  0  0  0  0  0  0  0
    4.1716   -1.4774    1.6361 H   0  0  0  0  0  0  0  0  0  0  0  0
    3.2289   -1.7577    3.1141 H   0  0  0  0  0  0  0  0  0  0  0  0
    2.5373   -2.2110    1.5285 H   0  0  0  0  0  0  0  0  0  0  0  0
  1 18  1  0  0  0  0
  2  1  1  0  0  0  0
  2  3  2  0  0  0  0
  4 19  1  6  0  0  0
  4 16  1  0  0  0  0
  4  5  1  0  0  0  0
  4  2  1  0  0  0  0
  5 10  1  0  0  0  0
  6  5  1  0  0  0  0
  6  8  2  0  0  0  0
  7  6  1  0  0  0  0
  8  9  2  0  0  0  0
  9 14  1  0  0  0  0
 10  9  1  0  0  0  0
 10 11  2  0  0  0  0
 11 12  1  0  0  0  0
 12 13  1  0  0  0  0
 12 22  1  0  0  0  0
 13 15  1  0  0  0  0
 14 23  1  0  0  0  0
 14 13  2  0  0  0  0
 16 25  1  0  0  0  0
 17  1  1  0  0  0  0
 20  7  1  0  0  0  0
 21 11  1  0  0  0  0
 24 16  1  0  0  0  0
 26 16  1  0  0  0  0
M  RAD  1  12   2
M  END
