41733743.xyz
 OpenBabel07262113513D
OCc1cnc(n1C1CCC(CC1)(C)C)S
 36 37  0  0  1  0  0  0  0  0999 V2000
    0.9543    0.4557    6.1863 O   0  0  0  0  0  0  0  0  0  0  0  0
    1.6358   -0.0070    5.0448 C   0  0  0  0  0  0  0  0  0  0  0  0
    0.7568    0.0285    3.8273 C   0  0  2  0  0  0  0  0  0  0  0  0
   -0.6340    0.0613    3.7877 C   0  0  0  0  0  0  0  0  0  0  0  0
   -1.0813    0.0358    2.5066 N   0  0  0  0  0  0  0  0  0  0  0  0
   -0.0000   -0.0000    1.7419 C   0  0  0  0  0  0  0  0  0  0  0  0
    1.1619    0.0000    2.5122 N   0  0  0  0  0  0  0  0  0  0  0  0
    2.5149   -0.0903    1.9665 C   0  0  0  0  0  0  0  0  0  0  0  0
    3.2076   -1.4176    2.3363 C   0  0  0  0  0  0  0  0  0  0  0  0
    4.7373   -1.2772    2.3358 C   0  0  0  0  0  0  0  0  0  0  0  0
    5.2712   -0.3663    1.2098 C   0  0  0  0  0  0  0  0  0  0  0  0
    4.6585    1.0646    1.3752 C   0  0  0  0  0  0  0  0  0  0  0  0
    3.4052    1.1169    2.2663 C   0  0  0  0  0  0  0  0  0  0  0  0
    6.8010   -0.2854    1.3097 C   0  0  0  0  0  0  0  0  0  0  0  0
    4.9018   -0.9567   -0.1642 C   0  0  0  0  0  0  0  0  0  0  0  0
    0.0000    0.0000    0.0000 S   0  0  0  0  0  0  0  0  0  0  0  0
    0.6246    1.3443    5.9928 H   0  0  0  0  0  0  0  0  0  0  0  0
    1.9349   -1.0451    5.2722 H   0  0  0  0  0  0  0  0  0  0  0  0
    2.5746    0.5506    4.8664 H   0  0  0  0  0  0  0  0  0  0  0  0
   -1.3075    0.0931    4.6424 H   0  0  0  0  0  0  0  0  0  0  0  0
    2.3491   -0.0785    0.8822 H   0  0  0  0  0  0  0  0  0  0  0  0
    2.8790   -2.1941    1.6265 H   0  0  0  0  0  0  0  0  0  0  0  0
    2.8734   -1.7567    3.3279 H   0  0  0  0  0  0  0  0  0  0  0  0
    5.0660   -0.8594    3.3021 H   0  0  0  0  0  0  0  0  0  0  0  0
    5.2044   -2.2728    2.2623 H   0  0  0  0  0  0  0  0  0  0  0  0
    5.4146    1.7455    1.7963 H   0  0  0  0  0  0  0  0  0  0  0  0
    4.4102    1.4644    0.3785 H   0  0  0  0  0  0  0  0  0  0  0  0
    3.6995    1.1285    3.3269 H   0  0  0  0  0  0  0  0  0  0  0  0
    2.8427    2.0450    2.0822 H   0  0  0  0  0  0  0  0  0  0  0  0
    7.2104    0.3961    0.5464 H   0  0  0  0  0  0  0  0  0  0  0  0
    7.2628   -1.2748    1.1597 H   0  0  0  0  0  0  0  0  0  0  0  0
    7.1149    0.0878    2.2981 H   0  0  0  0  0  0  0  0  0  0  0  0
    5.3250   -0.3422   -0.9748 H   0  0  0  0  0  0  0  0  0  0  0  0
    3.8146   -1.0072   -0.3269 H   0  0  0  0  0  0  0  0  0  0  0  0
    5.3032   -1.9776   -0.2723 H   0  0  0  0  0  0  0  0  0  0  0  0
    0.4413   -2.2186   -0.5261 Au  0  0  0  0  0  0  0  0  0  0  0  0
  2 18  1  0  0  0  0
  2  1  1  0  0  0  0
  3  2  1  1  0  0  0
  4  3  1  0  0  0  0
  4 20  1  0  0  0  0
  5  4  2  0  0  0  0
  6  5  2  0  0  0  0
  6  7  1  0  0  0  0
  7  3  1  0  0  0  0
  8 13  1  0  0  0  0
  8  9  1  0  0  0  0
  8  7  1  0  0  0  0
  9 23  1  0  0  0  0
 10  9  1  0  0  0  0
 10 24  1  0  0  0  0
 11 14  1  0  0  0  0
 11 12  1  0  0  0  0
 11 10  1  0  0  0  0
 12 26  1  0  0  0  0
 12 13  1  0  0  0  0
 13 28  1  0  0  0  0
 14 32  1  0  0  0  0
 15 11  1  0  0  0  0
 16  6  1  0  0  0  0
 17  1  1  0  0  0  0
 19  2  1  0  0  0  0
 21  8  1  0  0  0  0
 22  9  1  0  0  0  0
 25 10  1  0  0  0  0
 27 12  1  0  0  0  0
 29 13  1  0  0  0  0
 30 14  1  0  0  0  0
 31 14  1  0  0  0  0
 33 15  1  0  0  0  0
 34 15  1  0  0  0  0
 35 15  1  0  0  0  0
 36 16  1  0  0  0  0
M  RAD  1   3   2
M  END
