42014936.xyz
 OpenBabel07262113513D
CCc1ccc(o1)c1nnc(n1N)S
 24 25  0  0  0  0  0  0  0  0999 V2000
   -5.4652   -1.6914    5.5368 C   0  0  0  0  0  0  0  0  0  0  0  0
   -4.8426   -0.4836    6.2516 C   0  0  0  0  0  0  0  0  0  0  0  0
   -3.3579   -0.4358    6.1539 C   0  0  0  0  0  0  0  0  0  0  0  0
   -2.3381   -0.5021    7.0654 C   0  0  0  0  0  0  0  0  0  0  0  0
   -1.1098   -0.4258    6.3344 C   0  0  0  0  0  0  0  0  0  0  0  0
   -1.4581   -0.3227    5.0124 C   0  0  0  0  0  0  0  0  0  0  0  0
   -2.8248   -0.3279    4.8955 O   0  0  0  0  0  0  0  0  0  0  0  0
   -0.6586   -0.2130    3.8165 C   0  0  0  0  0  0  0  0  0  0  0  0
    0.6656   -0.1311    3.8015 N   0  0  0  0  0  0  0  0  0  0  0  0
    1.0724   -0.0000    2.5173 N   0  0  0  0  0  0  0  0  0  0  0  0
    0.0000    0.0000    1.7392 C   0  0  0  0  0  0  0  0  0  0  0  0
   -1.1291   -0.1479    2.5270 N   0  0  0  0  0  0  0  0  0  0  0  0
   -2.4407   -0.0873    2.0623 N   0  0  0  0  0  0  0  0  0  0  0  0
    0.0000    0.0000    0.0000 S   0  0  0  0  0  0  0  0  0  0  0  0
   -6.5625   -1.6733    5.6203 H   0  0  0  0  0  0  0  0  0  0  0  0
   -5.2070   -1.6919    4.4664 H   0  0  0  0  0  0  0  0  0  0  0  0
   -5.1010   -2.6359    5.9696 H   0  0  0  0  0  0  0  0  0  0  0  0
   -5.2648    0.4491    5.8353 H   0  0  0  0  0  0  0  0  0  0  0  0
   -5.1053   -0.4936    7.3203 H   0  0  0  0  0  0  0  0  0  0  0  0
   -2.4552   -0.5944    8.1427 H   0  0  0  0  0  0  0  0  0  0  0  0
   -0.0922   -0.4450    6.7145 H   0  0  0  0  0  0  0  0  0  0  0  0
   -3.0538    0.0259    2.8687 H   0  0  0  0  0  0  0  0  0  0  0  0
   -2.6673   -0.9687    1.5959 H   0  0  0  0  0  0  0  0  0  0  0  0
   -1.4972    1.7204   -0.4311 Au  0  0  0  0  0  0  0  0  0  0  0  0
  1 15  1  0  0  0  0
  1 17  1  0  0  0  0
  1  2  1  0  0  0  0
  2 19  1  0  0  0  0
  3  2  1  0  0  0  0
  3  4  2  0  0  0  0
  4 20  1  0  0  0  0
  5 21  1  0  0  0  0
  5  4  1  0  0  0  0
  6  5  2  0  0  0  0
  7  6  1  0  0  0  0
  7  3  1  0  0  0  0
  8  6  1  0  0  0  0
  9  8  2  0  0  0  0
 10  9  1  0  0  0  0
 11 10  2  0  0  0  0
 11 12  1  0  0  0  0
 12  8  1  0  0  0  0
 13 12  1  0  0  0  0
 13 22  1  0  0  0  0
 14 11  1  0  0  0  0
 16  1  1  0  0  0  0
 18  2  1  0  0  0  0
 23 13  1  0  0  0  0
 24 14  1  0  0  0  0
M  END
