42291435.xyz
 OpenBabel07262113513D
Sc1ccc(c(c1)N)S(=O)(=O)N
 20 20  0  0  0  0  0  0  0  0999 V2000
    0.0000    0.0000    0.0000 S   0  0  0  0  0  0  0  0  0  0  0  0
    0.0000    0.0000    1.7840 C   0  0  0  0  0  0  0  0  0  0  0  0
   -1.1960   -0.0843    2.5262 C   0  0  0  0  0  0  0  0  0  0  0  0
   -1.1212   -0.1701    3.9083 C   0  0  0  0  0  0  0  0  0  0  0  0
    0.1197   -0.1957    4.5588 C   0  0  0  0  0  0  0  0  0  0  0  0
    1.3391   -0.1044    3.8380 C   0  0  0  0  0  0  0  0  0  0  0  0
    1.2364   -0.0000    2.4313 C   0  0  0  0  0  0  0  0  0  0  0  0
    2.5579   -0.1228    4.4501 N   0  0  0  0  0  0  0  0  0  0  0  0
    0.1270   -0.3659    6.3230 S   0  0  0  0  0  0  0  0  0  0  0  0
    1.2259    0.4351    6.8914 O   0  0  0  0  0  0  0  0  0  0  0  0
   -1.2425   -0.1982    6.8114 O   0  0  0  0  0  0  0  0  0  0  0  0
    0.6429   -1.9630    6.5278 N   0  0  0  0  0  0  0  0  0  0  0  0
   -1.1276    1.9373   -0.5143 Au  0  0  0  0  0  0  0  0  0  0  0  0
   -2.1589   -0.0836    2.0155 H   0  0  0  0  0  0  0  0  0  0  0  0
   -2.0240   -0.2256    4.5185 H   0  0  0  0  0  0  0  0  0  0  0  0
    2.1490    0.0975    1.8395 H   0  0  0  0  0  0  0  0  0  0  0  0
    3.3656    0.1235    3.8939 H   0  0  0  0  0  0  0  0  0  0  0  0
    2.5869    0.1109    5.4397 H   0  0  0  0  0  0  0  0  0  0  0  0
   -0.1504   -2.6052    6.5060 H   0  0  0  0  0  0  0  0  0  0  0  0
    1.1422   -2.0266    7.4167 H   0  0  0  0  0  0  0  0  0  0  0  0
  1  2  1  0  0  0  0
  2  7  2  0  0  0  0
  2  3  1  0  0  0  0
  3  4  2  0  0  0  0
  4 15  1  0  0  0  0
  4  5  1  0  0  0  0
  5  9  1  0  0  0  0
  6  8  1  0  0  0  0
  6  5  2  0  0  0  0
  7  6  1  0  0  0  0
  8 18  1  0  0  0  0
  9 12  1  0  0  0  0
  9 11  2  0  0  0  0
  9 10  2  0  0  0  0
 12 20  1  0  0  0  0
 13  1  1  0  0  0  0
 14  3  1  0  0  0  0
 16  7  1  0  0  0  0
 17  8  1  0  0  0  0
 19 12  1  0  0  0  0
M  END
