42401301.xyz
 OpenBabel07262113513D
SCC1CCCN(C1)S(=O)(=O)C
 27 27  0  0  1  0  0  0  0  0999 V2000
    0.0000    0.0000    0.0000 S   0  0  0  0  0  0  0  0  0  0  0  0
    0.0000    0.0000    1.8440 C   0  0  0  0  0  0  0  0  0  0  0  0
    1.4495   -0.0000    2.3368 C   0  0  1  0  0  0  0  0  0  0  0  0
    2.2471    1.2561    1.8982 C   0  0  0  0  0  0  0  0  0  0  0  0
    3.2165    1.7385    2.9892 C   0  0  0  0  0  0  0  0  0  0  0  0
    3.8928    0.5736    3.7037 C   0  0  0  0  0  0  0  0  0  0  0  0
    2.8629   -0.2624    4.3493 N   0  0  0  0  0  0  0  0  0  0  0  0
    1.4855   -0.1454    3.8642 C   0  0  0  0  0  0  0  0  0  0  0  0
    3.3780   -1.7458    4.9539 S   0  0  0  0  0  0  0  0  0  0  0  0
    4.6924   -2.0493    4.3825 O   0  0  0  0  0  0  0  0  0  0  0  0
    2.2677   -2.6983    4.8554 O   0  0  0  0  0  0  0  0  0  0  0  0
    3.6328   -1.4049    6.6990 C   0  0  0  0  0  0  0  0  0  0  0  0
   -2.2240    0.0940   -0.5326 Au  0  0  0  0  0  0  0  0  0  0  0  0
   -0.5243    0.8933    2.2170 H   0  0  0  0  0  0  0  0  0  0  0  0
   -0.5246   -0.8936    2.2105 H   0  0  0  0  0  0  0  0  0  0  0  0
    1.9446   -0.9008    1.9352 H   0  0  0  0  0  0  0  0  0  0  0  0
    1.5513    2.0703    1.6395 H   0  0  0  0  0  0  0  0  0  0  0  0
    2.8046    1.0311    0.9759 H   0  0  0  0  0  0  0  0  0  0  0  0
    2.6824    2.3536    3.7319 H   0  0  0  0  0  0  0  0  0  0  0  0
    3.9927    2.3858    2.5528 H   0  0  0  0  0  0  0  0  0  0  0  0
    4.5992    0.9442    4.4651 H   0  0  0  0  0  0  0  0  0  0  0  0
    4.4795   -0.0236    2.9861 H   0  0  0  0  0  0  0  0  0  0  0  0
    0.9969    0.7234    4.3401 H   0  0  0  0  0  0  0  0  0  0  0  0
    0.9420   -1.0444    4.1776 H   0  0  0  0  0  0  0  0  0  0  0  0
    4.3788   -0.6059    6.7961 H   0  0  0  0  0  0  0  0  0  0  0  0
    4.0042   -2.3345    7.1513 H   0  0  0  0  0  0  0  0  0  0  0  0
    2.6724   -1.1116    7.1405 H   0  0  0  0  0  0  0  0  0  0  0  0
  1  2  1  0  0  0  0
  2 15  1  0  0  0  0
  2 14  1  0  0  0  0
  2  3  1  0  0  0  0
  3 16  1  6  0  0  0
  3  8  1  0  0  0  0
  4  3  1  0  0  0  0
  4  5  1  0  0  0  0
  5  6  1  0  0  0  0
  5 19  1  0  0  0  0
  6  7  1  0  0  0  0
  6 21  1  0  0  0  0
  7  9  1  0  0  0  0
  8 24  1  0  0  0  0
  8 23  1  0  0  0  0
  8  7  1  0  0  0  0
  9 12  1  0  0  0  0
 10  9  2  0  0  0  0
 11  9  2  0  0  0  0
 12 25  1  0  0  0  0
 12 27  1  0  0  0  0
 12 26  1  0  0  0  0
 13  1  1  0  0  0  0
 17  4  1  0  0  0  0
 18  4  1  0  0  0  0
 20  5  1  0  0  0  0
 22  6  1  0  0  0  0
M  END
