42810175.xyz
 OpenBabel07262113513D
Sc1nc(N)c(c(n1)O)C
 17 17  0  0  1  0  0  0  0  0999 V2000
    0.0000    0.0000    0.0000 S   0  0  0  0  0  0  0  0  0  0  0  0
   -0.0000    0.0000    1.7792 C   0  0  0  0  0  0  0  0  0  0  0  0
    1.2218    0.0000    2.2924 N   0  0  0  0  0  0  0  0  0  0  0  0
    1.3221   -0.0035    3.6335 C   0  0  0  0  0  0  0  0  0  0  0  0
    2.5823   -0.0267    4.1453 N   0  0  0  0  0  0  0  0  0  0  0  0
    0.1864   -0.0032    4.4777 C   0  0  1  0  0  0  0  0  0  0  0  0
   -1.0331    0.0016    3.7954 C   0  0  0  0  0  0  0  0  0  0  0  0
   -1.1455    0.0024    2.4637 N   0  0  0  0  0  0  0  0  0  0  0  0
   -2.1803    0.0045    4.4959 O   0  0  0  0  0  0  0  0  0  0  0  0
    0.2950   -0.0144    5.9752 C   0  0  0  0  0  0  0  0  0  0  0  0
   -2.2497    0.0030   -0.4773 Au  0  0  0  0  0  0  0  0  0  0  0  0
    3.3505    0.0761    3.4953 H   0  0  0  0  0  0  0  0  0  0  0  0
    2.7485    0.1291    5.1279 H   0  0  0  0  0  0  0  0  0  0  0  0
   -2.8948    0.0042    3.8388 H   0  0  0  0  0  0  0  0  0  0  0  0
   -0.6991   -0.0486    6.4377 H   0  0  0  0  0  0  0  0  0  0  0  0
    0.8080    0.8878    6.3559 H   0  0  0  0  0  0  0  0  0  0  0  0
    0.8646   -0.8906    6.3330 H   0  0  0  0  0  0  0  0  0  0  0  0
  1  2  1  0  0  0  0
  2  3  2  0  0  0  0
  2  8  2  0  0  0  0
  3  4  2  0  0  0  0
  4  5  1  0  0  0  0
  4  6  1  0  0  0  0
  5 13  1  0  0  0  0
  6 10  1  6  0  0  0
  7  6  1  0  0  0  0
  7  9  1  0  0  0  0
  8  7  2  0  0  0  0
 10 17  1  0  0  0  0
 10 16  1  0  0  0  0
 10 15  1  0  0  0  0
 11  1  1  0  0  0  0
 12  5  1  0  0  0  0
 14  9  1  0  0  0  0
M  RAD  1   6   2
M  END
