44006690.xyz
 OpenBabel07262113513D
CC1CC(C)CN(C1)C(=O)c1ccc2c(c1)nc(n(c2=O)C)S
 44 46  0  0  1  0  0  0  0  0999 V2000
   -6.1837    0.9174   10.7005 C   0  0  0  0  0  0  0  0  0  0  0  0
   -4.9426    1.2240    9.8646 C   0  0  2  0  0  0  0  0  0  0  0  0
   -4.7172    2.7409    9.6976 C   0  0  0  0  0  0  0  0  0  0  0  0
   -3.8839    3.0863    8.4445 C   0  0  1  0  0  0  0  0  0  0  0  0
   -3.0919    4.3810    8.6154 C   0  0  0  0  0  0  0  0  0  0  0  0
   -2.9663    1.9161    8.0744 C   0  0  0  0  0  0  0  0  0  0  0  0
   -3.7546    0.7221    7.7660 N   0  0  0  0  0  0  0  0  0  0  0  0
   -5.0083    0.5364    8.5021 C   0  0  0  0  0  0  0  0  0  0  0  0
   -3.5752   -0.0696    6.6619 C   0  0  0  0  0  0  0  0  0  0  0  0
   -4.4429   -0.8413    6.2755 O   0  0  0  0  0  0  0  0  0  0  0  0
   -2.2532    0.0068    5.9403 C   0  0  0  0  0  0  0  0  0  0  0  0
   -1.0190   -0.0103    6.6299 C   0  0  0  0  0  0  0  0  0  0  0  0
    0.1727   -0.0228    5.9227 C   0  0  0  0  0  0  0  0  0  0  0  0
    0.1573   -0.0080    4.5175 C   0  0  2  0  0  0  0  0  0  0  0  0
   -1.0701   -0.0038    3.8155 C   0  0  0  0  0  0  0  0  0  0  0  0
   -2.2732   -0.0107    4.5503 C   0  0  0  0  0  0  0  0  0  0  0  0
   -1.1155    0.0001    2.4397 N   0  0  0  0  0  0  0  0  0  0  0  0
    0.0000    0.0000    1.7773 C   0  0  0  0  0  0  0  0  0  0  0  0
    1.2546    0.0000    2.3600 N   0  0  0  0  0  0  0  0  0  0  0  0
    1.4169   -0.0044    3.7696 C   0  0  0  0  0  0  0  0  0  0  0  0
    2.5268   -0.0042    4.2714 O   0  0  0  0  0  0  0  0  0  0  0  0
    2.4697    0.0014    1.5469 C   0  0  0  0  0  0  0  0  0  0  0  0
    0.0000    0.0000    0.0000 S   0  0  0  0  0  0  0  0  0  0  0  0
   -6.2890   -0.1630   10.8868 H   0  0  0  0  0  0  0  0  0  0  0  0
   -7.0967    1.2616   10.1861 H   0  0  0  0  0  0  0  0  0  0  0  0
   -6.1387    1.4270   11.6760 H   0  0  0  0  0  0  0  0  0  0  0  0
   -4.0668    0.8029   10.3898 H   0  0  0  0  0  0  0  0  0  0  0  0
   -4.2173    3.1320   10.6003 H   0  0  0  0  0  0  0  0  0  0  0  0
   -5.6903    3.2576    9.6374 H   0  0  0  0  0  0  0  0  0  0  0  0
   -4.5761    3.2148    7.5939 H   0  0  0  0  0  0  0  0  0  0  0  0
   -2.5708    4.6648    7.6871 H   0  0  0  0  0  0  0  0  0  0  0  0
   -3.7546    5.2138    8.8989 H   0  0  0  0  0  0  0  0  0  0  0  0
   -2.3337    4.2751    9.4099 H   0  0  0  0  0  0  0  0  0  0  0  0
   -2.2613    1.7274    8.9064 H   0  0  0  0  0  0  0  0  0  0  0  0
   -2.3608    2.1808    7.1989 H   0  0  0  0  0  0  0  0  0  0  0  0
   -5.1856   -0.5433    8.6067 H   0  0  0  0  0  0  0  0  0  0  0  0
   -5.8617    0.9276    7.9152 H   0  0  0  0  0  0  0  0  0  0  0  0
   -1.0081   -0.0344    7.7206 H   0  0  0  0  0  0  0  0  0  0  0  0
    1.1398   -0.0462    6.4278 H   0  0  0  0  0  0  0  0  0  0  0  0
   -3.2222   -0.0383    4.0145 H   0  0  0  0  0  0  0  0  0  0  0  0
    3.3198    0.0007    2.2378 H   0  0  0  0  0  0  0  0  0  0  0  0
    2.5050    0.8979    0.9104 H   0  0  0  0  0  0  0  0  0  0  0  0
    2.5052   -0.8936    0.9083 H   0  0  0  0  0  0  0  0  0  0  0  0
   -2.2960   -0.0406   -0.2995 Au  0  0  0  0  0  0  0  0  0  0  0  0
  1 24  1  0  0  0  0
  1 26  1  0  0  0  0
  2 27  1  1  0  0  0
  2  1  1  0  0  0  0
  3  2  1  0  0  0  0
  3 28  1  0  0  0  0
  4 30  1  6  0  0  0
  4  5  1  0  0  0  0
  4  3  1  0  0  0  0
  5 32  1  0  0  0  0
  5 33  1  0  0  0  0
  6  4  1  0  0  0  0
  6 34  1  0  0  0  0
  7  6  1  0  0  0  0
  7  8  1  0  0  0  0
  8 36  1  0  0  0  0
  8  2  1  0  0  0  0
  9  7  1  0  0  0  0
 10  9  2  0  0  0  0
 11 12  1  0  0  0  0
 11  9  1  0  0  0  0
 12 38  1  0  0  0  0
 13 39  1  0  0  0  0
 13 12  2  0  0  0  0
 14 20  1  6  0  0  0
 14 13  1  0  0  0  0
 15 14  1  0  0  0  0
 15 16  1  0  0  0  0
 16 11  2  0  0  0  0
 17 15  2  0  0  0  0
 18 19  1  0  0  0  0
 18 17  2  0  0  0  0
 19 20  1  0  0  0  0
 20 21  2  0  0  0  0
 22 41  1  0  0  0  0
 22 19  1  0  0  0  0
 23 18  1  0  0  0  0
 25  1  1  0  0  0  0
 29  3  1  0  0  0  0
 31  5  1  0  0  0  0
 35  6  1  0  0  0  0
 37  8  1  0  0  0  0
 40 16  1  0  0  0  0
 42 22  1  0  0  0  0
 43 22  1  0  0  0  0
 44 23  1  0  0  0  0
M  RAD  1  14   2
M  END
