4410-99-5.xyz
 OpenBabel08132117233D
S[CH2][CH2]c1[cH][cH][cH][cH][cH]1
 19 19  0  0  0  0  0  0  0  0999 V2000
    0.0000    0.0000    0.0000 S   0  0  0  0  0  0  0  0  0  0  0  0
    1.4608    0.0000    2.3207 C   0  0  0  0  0  0  0  0  0  0  0  0
    1.5381   -0.0015    3.8295 C   0  0  0  0  0  0  0  0  0  0  0  0
   -0.0000   -0.0000    1.8436 C   0  0  0  0  0  0  0  0  0  0  0  0
    1.5500   -1.2078    4.5453 C   0  0  0  0  0  0  0  0  0  0  0  0
    1.5450    1.2033    4.5479 C   0  0  0  0  0  0  0  0  0  0  0  0
    1.5721   -1.2116    5.9420 C   0  0  0  0  0  0  0  0  0  0  0  0
    1.5670    1.2043    5.9445 C   0  0  0  0  0  0  0  0  0  0  0  0
    1.5798   -0.0044    6.6464 C   0  0  0  0  0  0  0  0  0  0  0  0
    1.9739   -0.8856    1.9127 H   0  0  0  0  0  0  0  0  0  0  0  0
    1.9730    0.8868    1.9143 H   0  0  0  0  0  0  0  0  0  0  0  0
   -0.5199    0.8912    2.2222 H   0  0  0  0  0  0  0  0  0  0  0  0
   -0.5202   -0.8911    2.2221 H   0  0  0  0  0  0  0  0  0  0  0  0
    1.5470   -2.1553    3.9988 H   0  0  0  0  0  0  0  0  0  0  0  0
    1.5381    2.1519    4.0034 H   0  0  0  0  0  0  0  0  0  0  0  0
    1.5865   -2.1612    6.4827 H   0  0  0  0  0  0  0  0  0  0  0  0
    1.5774    2.1527    6.4873 H   0  0  0  0  0  0  0  0  0  0  0  0
    1.5996   -0.0055    7.7388 H   0  0  0  0  0  0  0  0  0  0  0  0
   -2.2254    0.0111   -0.5339 Au  0  0  0  0  0  0  0  0  0  0  0  0
  1  4  1  0  0  0  0
  2  3  1  0  0  0  0
  3  5  2  0  0  0  0
  3  6  1  0  0  0  0
  4 13  1  0  0  0  0
  4 12  1  0  0  0  0
  4  2  1  0  0  0  0
  5  7  1  0  0  0  0
  6  8  2  0  0  0  0
  7 16  1  0  0  0  0
  7  9  2  0  0  0  0
  8 17  1  0  0  0  0
  8  9  1  0  0  0  0
  9 18  1  0  0  0  0
 10  2  1  0  0  0  0
 11  2  1  0  0  0  0
 14  5  1  0  0  0  0
 15  6  1  0  0  0  0
 19  1  1  0  0  0  0
M  END
