45984352.xyz
 OpenBabel07262113523D
COc1ccc2c(c1)c(c[nH]2)/C=C\1/N=C(N(C1=O)c1ccccc1)S
 40 43  0  0  0  0  0  0  0  0999 V2000
   -6.8616    0.6330    6.7576 C   0  0  0  0  0  0  0  0  0  0  0  0
   -6.2284    0.6535    8.0143 O   0  0  0  0  0  0  0  0  0  0  0  0
   -4.8723    0.5748    8.0646 C   0  0  0  0  0  0  0  0  0  0  0  0
   -4.3178    0.6038    9.3689 C   0  0  0  0  0  0  0  0  0  0  0  0
   -2.9467    0.5316    9.5694 C   0  0  0  0  0  0  0  0  0  0  0  0
   -2.1269    0.4290    8.4399 C   0  0  0  0  0  0  0  0  0  0  0  0
   -2.6594    0.3982    7.1290 C   0  0  0  0  0  0  0  0  0  0  0  0
   -4.0506    0.4721    6.9392 C   0  0  0  0  0  0  0  0  0  0  0  0
   -1.5313    0.2879    6.2129 C   0  0  0  0  0  0  0  0  0  0  0  0
   -0.3823    0.2576    7.0168 C   0  0  0  0  0  0  0  0  0  0  0  0
   -0.7444    0.3412    8.3235 N   0  0  0  0  0  0  0  0  0  0  0  0
   -1.6503    0.2287    4.7940 C   0  0  0  0  0  0  0  0  0  0  0  0
   -0.7123    0.1261    3.7966 C   0  0  0  0  0  0  0  0  0  0  0  0
   -1.0879    0.0607    2.4551 N   0  0  0  0  0  0  0  0  0  0  0  0
   -0.0000    0.0000    1.7506 C   0  0  0  0  0  0  0  0  0  0  0  0
    1.1668   -0.0000    2.5428 N   0  0  0  0  0  0  0  0  0  0  0  0
    0.7673    0.0482    3.8921 C   0  0  0  0  0  0  0  0  0  0  0  0
    1.5320    0.0257    4.8432 O   0  0  0  0  0  0  0  0  0  0  0  0
    2.5156   -0.0717    2.1136 C   0  0  0  0  0  0  0  0  0  0  0  0
    3.3049   -1.1644    2.4947 C   0  0  0  0  0  0  0  0  0  0  0  0
    4.6255   -1.2537    2.0487 C   0  0  0  0  0  0  0  0  0  0  0  0
    5.1576   -0.2593    1.2219 C   0  0  0  0  0  0  0  0  0  0  0  0
    4.3697    0.8358    0.8546 C   0  0  0  0  0  0  0  0  0  0  0  0
    3.0531    0.9375    1.3059 C   0  0  0  0  0  0  0  0  0  0  0  0
    0.0000    0.0000    0.0000 S   0  0  0  0  0  0  0  0  0  0  0  0
   -6.6570   -0.3049    6.2098 H   0  0  0  0  0  0  0  0  0  0  0  0
   -6.5486    1.4842    6.1260 H   0  0  0  0  0  0  0  0  0  0  0  0
   -7.9408    0.7072    6.9467 H   0  0  0  0  0  0  0  0  0  0  0  0
   -5.0076    0.6851   10.2103 H   0  0  0  0  0  0  0  0  0  0  0  0
   -2.5293    0.5551   10.5786 H   0  0  0  0  0  0  0  0  0  0  0  0
   -4.4659    0.4487    5.9326 H   0  0  0  0  0  0  0  0  0  0  0  0
    0.6514    0.1795    6.6873 H   0  0  0  0  0  0  0  0  0  0  0  0
   -0.0949    0.3399    9.0991 H   0  0  0  0  0  0  0  0  0  0  0  0
   -2.6731    0.2701    4.4061 H   0  0  0  0  0  0  0  0  0  0  0  0
    2.8760   -1.9334    3.1381 H   0  0  0  0  0  0  0  0  0  0  0  0
    5.2403   -2.1060    2.3469 H   0  0  0  0  0  0  0  0  0  0  0  0
    6.1887   -0.3346    0.8693 H   0  0  0  0  0  0  0  0  0  0  0  0
    4.7830    1.6186    0.2146 H   0  0  0  0  0  0  0  0  0  0  0  0
    2.4256    1.7816    1.0193 H   0  0  0  0  0  0  0  0  0  0  0  0
    1.5127   -1.6990   -0.4686 Au  0  0  0  0  0  0  0  0  0  0  0  0
  1 28  1  0  0  0  0
  1  2  1  0  0  0  0
  2  3  1  0  0  0  0
  3  4  2  0  0  0  0
  4  5  1  0  0  0  0
  4 29  1  0  0  0  0
  5 30  1  0  0  0  0
  6  5  2  0  0  0  0
  7  6  1  0  0  0  0
  8  7  2  0  0  0  0
  8  3  1  0  0  0  0
  9 10  2  0  0  0  0
  9  7  1  0  0  0  0
 10 11  1  0  0  0  0
 11  6  1  0  0  0  0
 11 33  1  0  0  0  0
 12  9  1  0  0  0  0
 13 17  1  0  0  0  0
 13 12  1  0  0  0  0
 14 13  2  0  0  0  0
 15 14  2  0  0  0  0
 15 16  1  0  0  0  0
 16 17  1  0  0  0  0
 17 18  2  0  0  0  0
 19 20  1  0  0  0  0
 19 16  1  0  0  0  0
 20 35  1  0  0  0  0
 21 36  1  0  0  0  0
 21 20  2  0  0  0  0
 22 21  1  0  0  0  0
 23 22  2  0  0  0  0
 23 24  1  0  0  0  0
 24 19  2  0  0  0  0
 25 15  1  0  0  0  0
 26  1  1  0  0  0  0
 27  1  1  0  0  0  0
 31  8  1  0  0  0  0
 32 10  1  0  0  0  0
 34 12  1  0  0  0  0
 37 22  1  0  0  0  0
 38 23  1  0  0  0  0
 39 24  1  0  0  0  0
 40 25  1  0  0  0  0
M  RAD  1  12   2
M  END
