45984348.xyz
 OpenBabel07262113523D
COc1cc(O)ccc1/C=C\1/N=C(N(C1=O)c1ccccc1)S
 37 39  0  0  0  0  0  0  0  0999 V2000
    1.5583    2.6550    6.3907 C   0  0  0  0  0  0  0  0  0  0  0  0
    0.3866    1.9662    6.0192 O   0  0  0  0  0  0  0  0  0  0  0  0
   -0.1652    1.0844    6.8715 C   0  0  0  0  0  0  0  0  0  0  0  0
    0.1241    1.0698    8.2422 C   0  0  0  0  0  0  0  0  0  0  0  0
   -0.5750    0.2157    9.1054 C   0  0  0  0  0  0  0  0  0  0  0  0
   -0.3202    0.1756   10.4353 O   0  0  0  0  0  0  0  0  0  0  0  0
   -1.5872   -0.6169    8.6080 C   0  0  0  0  0  0  0  0  0  0  0  0
   -1.8558   -0.6046    7.2461 C   0  0  0  0  0  0  0  0  0  0  0  0
   -1.1316    0.1910    6.3357 C   0  0  0  0  0  0  0  0  0  0  0  0
   -1.4290    0.0833    4.9163 C   0  0  0  0  0  0  0  0  0  0  0  0
   -0.5863    0.1096    3.8481 C   0  0  0  0  0  0  0  0  0  0  0  0
   -1.0444    0.0465    2.5260 N   0  0  0  0  0  0  0  0  0  0  0  0
    0.0000    0.0000    1.7560 C   0  0  0  0  0  0  0  0  0  0  0  0
    1.2117    0.0000    2.4543 N   0  0  0  0  0  0  0  0  0  0  0  0
    0.9078    0.0734    3.8405 C   0  0  0  0  0  0  0  0  0  0  0  0
    1.7332    0.0502    4.7261 O   0  0  0  0  0  0  0  0  0  0  0  0
    2.5253   -0.0971    1.9284 C   0  0  0  0  0  0  0  0  0  0  0  0
    2.8469   -1.0972    1.0012 C   0  0  0  0  0  0  0  0  0  0  0  0
    4.1422   -1.1751    0.4859 C   0  0  0  0  0  0  0  0  0  0  0  0
    5.1257   -0.2798    0.9135 C   0  0  0  0  0  0  0  0  0  0  0  0
    4.8069    0.7000    1.8588 C   0  0  0  0  0  0  0  0  0  0  0  0
    3.5104    0.7986    2.3639 C   0  0  0  0  0  0  0  0  0  0  0  0
    0.0000    0.0000    0.0000 S   0  0  0  0  0  0  0  0  0  0  0  0
    1.8904    3.2057    5.5009 H   0  0  0  0  0  0  0  0  0  0  0  0
    2.3504    1.9516    6.6946 H   0  0  0  0  0  0  0  0  0  0  0  0
    1.3686    3.3788    7.2039 H   0  0  0  0  0  0  0  0  0  0  0  0
    0.8752    1.7446    8.6550 H   0  0  0  0  0  0  0  0  0  0  0  0
    0.3990    0.7854   10.6460 H   0  0  0  0  0  0  0  0  0  0  0  0
   -2.1346   -1.2602    9.2976 H   0  0  0  0  0  0  0  0  0  0  0  0
   -2.6320   -1.2640    6.8497 H   0  0  0  0  0  0  0  0  0  0  0  0
   -2.4776   -0.0990    4.6556 H   0  0  0  0  0  0  0  0  0  0  0  0
    2.0840   -1.8120    0.6903 H   0  0  0  0  0  0  0  0  0  0  0  0
    4.3847   -1.9506   -0.2442 H   0  0  0  0  0  0  0  0  0  0  0  0
    6.1405   -0.3482    0.5152 H   0  0  0  0  0  0  0  0  0  0  0  0
    5.5726    1.4001    2.2011 H   0  0  0  0  0  0  0  0  0  0  0  0
    3.2539    1.5612    3.0986 H   0  0  0  0  0  0  0  0  0  0  0  0
   -2.2952    0.2100   -0.2534 Au  0  0  0  0  0  0  0  0  0  0  0  0
  1 25  1  0  0  0  0
  1 26  1  0  0  0  0
  2  1  1  0  0  0  0
  2  3  1  0  0  0  0
  3  4  1  0  0  0  0
  4 27  1  0  0  0  0
  4  5  2  0  0  0  0
  5  6  1  0  0  0  0
  6 28  1  0  0  0  0
  7  5  1  0  0  0  0
  7 29  1  0  0  0  0
  8  7  2  0  0  0  0
  9  3  2  0  0  0  0
  9  8  1  0  0  0  0
 10  9  1  0  0  0  0
 11 10  1  0  0  0  0
 12 11  2  0  0  0  0
 13 14  1  0  0  0  0
 13 12  2  0  0  0  0
 14 15  1  0  0  0  0
 15 11  1  0  0  0  0
 15 16  2  0  0  0  0
 17 22  1  0  0  0  0
 17 14  1  0  0  0  0
 18 17  2  0  0  0  0
 19 20  2  0  0  0  0
 19 18  1  0  0  0  0
 20 21  1  0  0  0  0
 21 35  1  0  0  0  0
 21 22  2  0  0  0  0
 22 36  1  0  0  0  0
 23 13  1  0  0  0  0
 24  1  1  0  0  0  0
 30  8  1  0  0  0  0
 31 10  1  0  0  0  0
 32 18  1  0  0  0  0
 33 19  1  0  0  0  0
 34 20  1  0  0  0  0
 37 23  1  0  0  0  0
M  RAD  1  10   2
M  END
