45984294.xyz
 OpenBabel07262113523D
Clc1ccc(cc1)/C=C\1/N=C(N(C1=O)c1ccccc1)S
 32 34  0  0  0  0  0  0  0  0999 V2000
    2.0180    0.4198   10.7418 Cl  0  0  0  0  0  0  0  0  0  0  0  0
    1.9008    0.3365    9.0043 C   0  0  0  0  0  0  0  0  0  0  0  0
    0.6418    0.3109    8.3946 C   0  0  0  0  0  0  0  0  0  0  0  0
    0.5425    0.2443    7.0085 C   0  0  0  0  0  0  0  0  0  0  0  0
    1.7036    0.2019    6.2017 C   0  0  0  0  0  0  0  0  0  0  0  0
    2.9612    0.2293    6.8509 C   0  0  0  0  0  0  0  0  0  0  0  0
    3.0682    0.2958    8.2349 C   0  0  0  0  0  0  0  0  0  0  0  0
    1.7159    0.1325    4.7536 C   0  0  0  0  0  0  0  0  0  0  0  0
    0.7411    0.0891    3.7964 C   0  0  0  0  0  0  0  0  0  0  0  0
    1.0939    0.0000    2.4458 N   0  0  0  0  0  0  0  0  0  0  0  0
    0.0000    0.0000    1.7531 C   0  0  0  0  0  0  0  0  0  0  0  0
   -1.1591    0.0707    2.5507 N   0  0  0  0  0  0  0  0  0  0  0  0
   -0.7541    0.1034    3.8977 C   0  0  0  0  0  0  0  0  0  0  0  0
   -1.5195    0.1366    4.8411 O   0  0  0  0  0  0  0  0  0  0  0  0
   -2.5132    0.1133    2.1300 C   0  0  0  0  0  0  0  0  0  0  0  0
   -3.3502   -0.9830    2.3783 C   0  0  0  0  0  0  0  0  0  0  0  0
   -4.6741   -0.9578    1.9307 C   0  0  0  0  0  0  0  0  0  0  0  0
   -5.1599    0.1562    1.2383 C   0  0  0  0  0  0  0  0  0  0  0  0
   -4.3243    1.2529    1.0058 C   0  0  0  0  0  0  0  0  0  0  0  0
   -3.0035    1.2376    1.4568 C   0  0  0  0  0  0  0  0  0  0  0  0
    0.0000    0.0000    0.0000 S   0  0  0  0  0  0  0  0  0  0  0  0
   -0.2570    0.3435    9.0120 H   0  0  0  0  0  0  0  0  0  0  0  0
   -0.4380    0.2238    6.5340 H   0  0  0  0  0  0  0  0  0  0  0  0
    3.8715    0.1975    6.2475 H   0  0  0  0  0  0  0  0  0  0  0  0
    4.0430    0.3166    8.7237 H   0  0  0  0  0  0  0  0  0  0  0  0
    2.7169    0.1069    4.3107 H   0  0  0  0  0  0  0  0  0  0  0  0
   -2.9555   -1.8429    2.9213 H   0  0  0  0  0  0  0  0  0  0  0  0
   -5.3276   -1.8111    2.1257 H   0  0  0  0  0  0  0  0  0  0  0  0
   -6.1937    0.1721    0.8858 H   0  0  0  0  0  0  0  0  0  0  0  0
   -4.7030    2.1268    0.4713 H   0  0  0  0  0  0  0  0  0  0  0  0
   -2.3363    2.0804    1.2723 H   0  0  0  0  0  0  0  0  0  0  0  0
   -1.7863   -1.4036   -0.4744 Au  0  0  0  0  0  0  0  0  0  0  0  0
  2  1  1  0  0  0  0
  3  2  1  0  0  0  0
  3 22  1  0  0  0  0
  4  3  2  0  0  0  0
  5  6  2  0  0  0  0
  5  4  1  0  0  0  0
  6  7  1  0  0  0  0
  7 25  1  0  0  0  0
  7  2  2  0  0  0  0
  8  5  1  0  0  0  0
  9 13  1  0  0  0  0
  9  8  1  0  0  0  0
 10  9  2  0  0  0  0
 11 10  2  0  0  0  0
 11 12  1  0  0  0  0
 12 13  1  0  0  0  0
 13 14  2  0  0  0  0
 15 16  1  0  0  0  0
 15 12  1  0  0  0  0
 16 27  1  0  0  0  0
 17 28  1  0  0  0  0
 17 16  2  0  0  0  0
 18 17  1  0  0  0  0
 19 18  2  0  0  0  0
 19 20  1  0  0  0  0
 20 15  2  0  0  0  0
 21 11  1  0  0  0  0
 23  4  1  0  0  0  0
 24  6  1  0  0  0  0
 26  8  1  0  0  0  0
 29 18  1  0  0  0  0
 30 19  1  0  0  0  0
 31 20  1  0  0  0  0
 32 21  1  0  0  0  0
M  RAD  1   8   2
M  END
