45984290.xyz
 OpenBabel07262113513D
SC1=N/C(=C/c2ccccc2Cl)/C(=O)N1c1ccccc1
 32 34  0  0  0  0  0  0  0  0999 V2000
    0.0000    0.0000    0.0000 S   0  0  0  0  0  0  0  0  0  0  0  0
    0.0000   -0.0000    1.7547 C   0  0  0  0  0  0  0  0  0  0  0  0
    1.1025    0.0000    2.4355 N   0  0  0  0  0  0  0  0  0  0  0  0
    0.7553   -0.1052    3.7841 C   0  0  0  0  0  0  0  0  0  0  0  0
    1.6624   -0.1017    4.7894 C   0  0  0  0  0  0  0  0  0  0  0  0
    1.4097   -0.2146    6.2315 C   0  0  0  0  0  0  0  0  0  0  0  0
    1.9809    0.7519    7.0840 C   0  0  0  0  0  0  0  0  0  0  0  0
    1.7844    0.7250    8.4621 C   0  0  0  0  0  0  0  0  0  0  0  0
    1.0247   -0.3011    9.0311 C   0  0  0  0  0  0  0  0  0  0  0  0
    0.4833   -1.2973    8.2194 C   0  0  0  0  0  0  0  0  0  0  0  0
    0.6777   -1.2586    6.8363 C   0  0  0  0  0  0  0  0  0  0  0  0
    0.0605   -2.5941    5.8980 Cl  0  0  0  0  0  0  0  0  0  0  0  0
   -0.7429   -0.1029    3.9057 C   0  0  0  0  0  0  0  0  0  0  0  0
   -1.4766   -0.0952    4.8640 O   0  0  0  0  0  0  0  0  0  0  0  0
   -1.1578   -0.0674    2.5546 N   0  0  0  0  0  0  0  0  0  0  0  0
   -2.5132   -0.1268    2.1439 C   0  0  0  0  0  0  0  0  0  0  0  0
   -3.3404    0.9926    2.3158 C   0  0  0  0  0  0  0  0  0  0  0  0
   -4.6680    0.9464    1.8784 C   0  0  0  0  0  0  0  0  0  0  0  0
   -5.1677   -0.2124    1.2748 C   0  0  0  0  0  0  0  0  0  0  0  0
   -4.3433   -1.3312    1.1210 C   0  0  0  0  0  0  0  0  0  0  0  0
   -3.0188   -1.2936    1.5602 C   0  0  0  0  0  0  0  0  0  0  0  0
   -1.8748    1.2804   -0.4802 Au  0  0  0  0  0  0  0  0  0  0  0  0
    2.7018    0.0522    4.4793 H   0  0  0  0  0  0  0  0  0  0  0  0
    2.5740    1.5517    6.6338 H   0  0  0  0  0  0  0  0  0  0  0  0
    2.2251    1.5010    9.0915 H   0  0  0  0  0  0  0  0  0  0  0  0
    0.8630   -0.3373   10.1108 H   0  0  0  0  0  0  0  0  0  0  0  0
   -0.0887   -2.1209    8.6484 H   0  0  0  0  0  0  0  0  0  0  0  0
   -2.9348    1.8850    2.7949 H   0  0  0  0  0  0  0  0  0  0  0  0
   -5.3134    1.8171    2.0145 H   0  0  0  0  0  0  0  0  0  0  0  0
   -6.2041   -0.2455    0.9313 H   0  0  0  0  0  0  0  0  0  0  0  0
   -4.7336   -2.2395    0.6568 H   0  0  0  0  0  0  0  0  0  0  0  0
   -2.3596   -2.1538    1.4368 H   0  0  0  0  0  0  0  0  0  0  0  0
  1  2  1  0  0  0  0
  2  3  2  0  0  0  0
  2 15  1  0  0  0  0
  3  4  2  0  0  0  0
  4 13  1  0  0  0  0
  4  5  1  0  0  0  0
  5  6  1  0  0  0  0
  6 11  2  0  0  0  0
  6  7  1  0  0  0  0
  7  8  2  0  0  0  0
  8  9  1  0  0  0  0
  8 25  1  0  0  0  0
  9 26  1  0  0  0  0
 10 27  1  0  0  0  0
 10  9  2  0  0  0  0
 11 10  1  0  0  0  0
 12 11  1  0  0  0  0
 13 14  2  0  0  0  0
 15 13  1  0  0  0  0
 16 17  1  0  0  0  0
 16 15  1  0  0  0  0
 17 28  1  0  0  0  0
 18 29  1  0  0  0  0
 18 17  2  0  0  0  0
 19 18  1  0  0  0  0
 20 19  2  0  0  0  0
 20 21  1  0  0  0  0
 21 16  2  0  0  0  0
 22  1  1  0  0  0  0
 23  5  1  0  0  0  0
 24  7  1  0  0  0  0
 30 19  1  0  0  0  0
 31 20  1  0  0  0  0
 32 21  1  0  0  0  0
M  RAD  1   5   2
M  END
