45984334.xyz
 OpenBabel07262113523D
SC1=N/C(=C/c2ccccc2C)/C(=O)N1c1ccccc1
 35 37  0  0  0  0  0  0  0  0999 V2000
    0.0000    0.0000    0.0000 S   0  0  0  0  0  0  0  0  0  0  0  0
   -0.0000   -0.0000    1.7546 C   0  0  0  0  0  0  0  0  0  0  0  0
    1.0390   -0.0000    2.5311 N   0  0  0  0  0  0  0  0  0  0  0  0
    0.5810   -0.0545    3.8568 C   0  0  0  0  0  0  0  0  0  0  0  0
    1.4830   -0.0540    4.8843 C   0  0  0  0  0  0  0  0  0  0  0  0
    1.3812   -0.1027    6.3325 C   0  0  0  0  0  0  0  0  0  0  0  0
    0.1483   -0.1798    7.0198 C   0  0  0  0  0  0  0  0  0  0  0  0
    0.0995   -0.2240    8.4101 C   0  0  0  0  0  0  0  0  0  0  0  0
    1.2820   -0.1929    9.1519 C   0  0  0  0  0  0  0  0  0  0  0  0
    2.5097   -0.1172    8.4898 C   0  0  0  0  0  0  0  0  0  0  0  0
    2.5899   -0.0712    7.0944 C   0  0  0  0  0  0  0  0  0  0  0  0
    3.9495    0.0107    6.4437 C   0  0  0  0  0  0  0  0  0  0  0  0
   -0.9156   -0.1031    3.8297 C   0  0  0  0  0  0  0  0  0  0  0  0
   -1.7575   -0.1737    4.7019 O   0  0  0  0  0  0  0  0  0  0  0  0
   -1.2129   -0.0468    2.4491 N   0  0  0  0  0  0  0  0  0  0  0  0
   -2.5276   -0.0335    1.9102 C   0  0  0  0  0  0  0  0  0  0  0  0
   -2.9029    0.9604    0.9971 C   0  0  0  0  0  0  0  0  0  0  0  0
   -4.1928    0.9584    0.4630 C   0  0  0  0  0  0  0  0  0  0  0  0
   -5.1165   -0.0122    0.8585 C   0  0  0  0  0  0  0  0  0  0  0  0
   -4.7442   -0.9864    1.7899 C   0  0  0  0  0  0  0  0  0  0  0  0
   -3.4515   -1.0050    2.3141 C   0  0  0  0  0  0  0  0  0  0  0  0
    2.2993   -0.0930   -0.2716 Au  0  0  0  0  0  0  0  0  0  0  0  0
    2.5012   -0.0028    4.4947 H   0  0  0  0  0  0  0  0  0  0  0  0
   -0.7745   -0.2042    6.4427 H   0  0  0  0  0  0  0  0  0  0  0  0
   -0.8678   -0.2830    8.9143 H   0  0  0  0  0  0  0  0  0  0  0  0
    1.2531   -0.2273   10.2438 H   0  0  0  0  0  0  0  0  0  0  0  0
    3.4345   -0.0928    9.0721 H   0  0  0  0  0  0  0  0  0  0  0  0
    4.0602    0.9216    5.8330 H   0  0  0  0  0  0  0  0  0  0  0  0
    4.1412   -0.8479    5.7796 H   0  0  0  0  0  0  0  0  0  0  0  0
    4.7417    0.0239    7.2053 H   0  0  0  0  0  0  0  0  0  0  0  0
   -2.1863    1.7318    0.7121 H   0  0  0  0  0  0  0  0  0  0  0  0
   -4.4789    1.7294   -0.2559 H   0  0  0  0  0  0  0  0  0  0  0  0
   -6.1278   -0.0068    0.4458 H   0  0  0  0  0  0  0  0  0  0  0  0
   -5.4641   -1.7444    2.1072 H   0  0  0  0  0  0  0  0  0  0  0  0
   -3.1540   -1.7614    3.0398 H   0  0  0  0  0  0  0  0  0  0  0  0
  1  2  1  0  0  0  0
  2 15  1  0  0  0  0
  2  3  2  0  0  0  0
  3  4  2  0  0  0  0
  4  5  1  0  0  0  0
  5  6  1  0  0  0  0
  6  7  2  0  0  0  0
  6 11  1  0  0  0  0
  7  8  1  0  0  0  0
  8 25  1  0  0  0  0
  8  9  2  0  0  0  0
  9 26  1  0  0  0  0
 10 27  1  0  0  0  0
 10  9  1  0  0  0  0
 11 10  2  0  0  0  0
 12 11  1  0  0  0  0
 12 30  1  0  0  0  0
 13  4  1  0  0  0  0
 13 14  2  0  0  0  0
 15 13  1  0  0  0  0
 16 21  1  0  0  0  0
 16 15  1  0  0  0  0
 17 16  2  0  0  0  0
 18 19  2  0  0  0  0
 18 17  1  0  0  0  0
 19 20  1  0  0  0  0
 20 34  1  0  0  0  0
 20 21  2  0  0  0  0
 21 35  1  0  0  0  0
 22  1  1  0  0  0  0
 23  5  1  0  0  0  0
 24  7  1  0  0  0  0
 28 12  1  0  0  0  0
 29 12  1  0  0  0  0
 31 17  1  0  0  0  0
 32 18  1  0  0  0  0
 33 19  1  0  0  0  0
M  RAD  1   5   2
M  END
