45984346.xyz
 OpenBabel07262113523D
Brc1ccc(cc1)/C=C\1/N=C(N(C1=O)c1ccccc1)S
 32 34  0  0  0  0  0  0  0  0999 V2000
   -2.0011   -0.5435   10.8989 Br  0  0  0  0  0  0  0  0  0  0  0  0
   -1.8783   -0.4465    9.0037 C   0  0  0  0  0  0  0  0  0  0  0  0
   -3.0462   -0.4765    8.2351 C   0  0  0  0  0  0  0  0  0  0  0  0
   -2.9427   -0.4047    6.8505 C   0  0  0  0  0  0  0  0  0  0  0  0
   -1.6890   -0.3026    6.2016 C   0  0  0  0  0  0  0  0  0  0  0  0
   -0.5277   -0.2748    7.0084 C   0  0  0  0  0  0  0  0  0  0  0  0
   -0.6228   -0.3461    8.3953 C   0  0  0  0  0  0  0  0  0  0  0  0
   -1.7056   -0.2350    4.7531 C   0  0  0  0  0  0  0  0  0  0  0  0
   -0.7351   -0.1334    3.7961 C   0  0  0  0  0  0  0  0  0  0  0  0
   -1.0921   -0.0664    2.4454 N   0  0  0  0  0  0  0  0  0  0  0  0
   -0.0000   -0.0000    1.7531 C   0  0  0  0  0  0  0  0  0  0  0  0
    1.1611   -0.0000    2.5508 N   0  0  0  0  0  0  0  0  0  0  0  0
    0.7585   -0.0571    3.8977 C   0  0  0  0  0  0  0  0  0  0  0  0
    1.5243   -0.0441    4.8412 O   0  0  0  0  0  0  0  0  0  0  0  0
    2.5156    0.0382    2.1307 C   0  0  0  0  0  0  0  0  0  0  0  0
    3.0738   -1.0571    1.4627 C   0  0  0  0  0  0  0  0  0  0  0  0
    4.3933   -0.9939    1.0120 C   0  0  0  0  0  0  0  0  0  0  0  0
    5.1603    0.1529    1.2396 C   0  0  0  0  0  0  0  0  0  0  0  0
    4.6073    1.2382    1.9271 C   0  0  0  0  0  0  0  0  0  0  0  0
    3.2841    1.1846    2.3744 C   0  0  0  0  0  0  0  0  0  0  0  0
    0.0000    0.0000    0.0000 S   0  0  0  0  0  0  0  0  0  0  0  0
   -4.0211   -0.5550    8.7179 H   0  0  0  0  0  0  0  0  0  0  0  0
   -3.8534   -0.4280    6.2472 H   0  0  0  0  0  0  0  0  0  0  0  0
    0.4502   -0.1960    6.5345 H   0  0  0  0  0  0  0  0  0  0  0  0
    0.2798   -0.3240    9.0075 H   0  0  0  0  0  0  0  0  0  0  0  0
   -2.7062   -0.2700    4.3103 H   0  0  0  0  0  0  0  0  0  0  0  0
    2.4594   -1.9399    1.2820 H   0  0  0  0  0  0  0  0  0  0  0  0
    4.8249   -1.8454    0.4815 H   0  0  0  0  0  0  0  0  0  0  0  0
    6.1932    0.1985    0.8874 H   0  0  0  0  0  0  0  0  0  0  0  0
    5.2074    2.1306    2.1185 H   0  0  0  0  0  0  0  0  0  0  0  0
    2.8375    2.0210    2.9139 H   0  0  0  0  0  0  0  0  0  0  0  0
    1.7035    1.5029   -0.4743 Au  0  0  0  0  0  0  0  0  0  0  0  0
  2  1  1  0  0  0  0
  3 22  1  0  0  0  0
  3  2  2  0  0  0  0
  4  3  1  0  0  0  0
  5  4  2  0  0  0  0
  5  6  1  0  0  0  0
  6  7  2  0  0  0  0
  7  2  1  0  0  0  0
  7 25  1  0  0  0  0
  8  5  1  0  0  0  0
  9 13  1  0  0  0  0
  9  8  1  0  0  0  0
 10  9  2  0  0  0  0
 11 10  2  0  0  0  0
 11 12  1  0  0  0  0
 12 13  1  0  0  0  0
 13 14  2  0  0  0  0
 15 20  1  0  0  0  0
 15 12  1  0  0  0  0
 16 15  2  0  0  0  0
 17 18  2  0  0  0  0
 17 16  1  0  0  0  0
 18 19  1  0  0  0  0
 19 30  1  0  0  0  0
 19 20  2  0  0  0  0
 20 31  1  0  0  0  0
 21 11  1  0  0  0  0
 23  4  1  0  0  0  0
 24  6  1  0  0  0  0
 26  8  1  0  0  0  0
 27 16  1  0  0  0  0
 28 17  1  0  0  0  0
 29 18  1  0  0  0  0
 32 21  1  0  0  0  0
M  RAD  1   8   2
M  END
