46013193.xyz
 OpenBabel07262113523D
COC(=O)c1ccc(cc1)/C=C/1\SC(=NC1=O)S
 27 28  0  0  0  0  0  0  0  0999 V2000
    8.1147    0.0122    9.2634 C   0  0  0  0  0  0  0  0  0  0  0  0
    6.8054    0.0103    8.6988 O   0  0  0  0  0  0  0  0  0  0  0  0
    6.7419    0.0065    7.3542 C   0  0  0  0  0  0  0  0  0  0  0  0
    7.7224    0.0046    6.6459 O   0  0  0  0  0  0  0  0  0  0  0  0
    5.3388    0.0049    6.8509 C   0  0  0  0  0  0  0  0  0  0  0  0
    4.2299    0.0077    7.7105 C   0  0  0  0  0  0  0  0  0  0  0  0
    2.9439    0.0063    7.1828 C   0  0  0  0  0  0  0  0  0  0  0  0
    2.7218    0.0023    5.7878 C   0  0  0  0  0  0  0  0  0  0  0  0
    3.8493   -0.0006    4.9372 C   0  0  0  0  0  0  0  0  0  0  0  0
    5.1353    0.0007    5.4622 C   0  0  0  0  0  0  0  0  0  0  0  0
    1.3439    0.0015    5.3214 C   0  0  0  0  0  0  0  0  0  0  0  0
    0.8198    0.0004    4.0752 C   0  0  0  0  0  0  0  0  0  0  0  0
    1.6242   -0.0000    2.5096 S   0  0  0  0  0  0  0  0  0  0  0  0
   -0.0000    0.0000    1.7355 C   0  0  0  0  0  0  0  0  0  0  0  0
   -1.0277    0.0001    2.5103 N   0  0  0  0  0  0  0  0  0  0  0  0
   -0.6852    0.0002    3.8735 C   0  0  0  0  0  0  0  0  0  0  0  0
   -1.4826    0.0003    4.7808 O   0  0  0  0  0  0  0  0  0  0  0  0
    0.0000    0.0000    0.0000 S   0  0  0  0  0  0  0  0  0  0  0  0
    8.6764   -0.8804    8.9488 H   0  0  0  0  0  0  0  0  0  0  0  0
    7.9790    0.0146   10.3516 H   0  0  0  0  0  0  0  0  0  0  0  0
    8.6756    0.9037    8.9447 H   0  0  0  0  0  0  0  0  0  0  0  0
    4.3874    0.0109    8.7889 H   0  0  0  0  0  0  0  0  0  0  0  0
    2.0822    0.0084    7.8544 H   0  0  0  0  0  0  0  0  0  0  0  0
    3.7259   -0.0041    3.8544 H   0  0  0  0  0  0  0  0  0  0  0  0
    6.0091   -0.0016    4.8089 H   0  0  0  0  0  0  0  0  0  0  0  0
    0.5731    0.0022    6.1004 H   0  0  0  0  0  0  0  0  0  0  0  0
   -2.2991    0.0020   -0.3110 Au  0  0  0  0  0  0  0  0  0  0  0  0
  1 20  1  0  0  0  0
  2  1  1  0  0  0  0
  3  2  1  0  0  0  0
  4  3  2  0  0  0  0
  5  3  1  0  0  0  0
  5  6  2  0  0  0  0
  6 22  1  0  0  0  0
  7  6  1  0  0  0  0
  7 23  1  0  0  0  0
  8  7  2  0  0  0  0
  9 10  2  0  0  0  0
  9  8  1  0  0  0  0
 10  5  1  0  0  0  0
 11  8  1  0  0  0  0
 11 26  1  0  0  0  0
 12 11  2  0  0  0  0
 13 12  1  0  0  0  0
 14 13  1  0  0  0  0
 14 15  2  0  0  0  0
 15 16  2  0  0  0  0
 16 12  1  0  0  0  0
 16 17  2  0  0  0  0
 18 14  1  0  0  0  0
 19  1  1  0  0  0  0
 21  1  1  0  0  0  0
 24  9  1  0  0  0  0
 25 10  1  0  0  0  0
 27 18  1  0  0  0  0
M  END
