46103300.xyz
 OpenBabel07262113523D
Sc1cccc(c1)c1ccc(cc1)C(C)(C)C
 35 36  0  0  0  0  0  0  0  0999 V2000
    0.0000    0.0000    0.0000 S   0  0  0  0  0  0  0  0  0  0  0  0
    0.0000    0.0000    1.7842 C   0  0  0  0  0  0  0  0  0  0  0  0
    1.2164    0.0000    2.4866 C   0  0  0  0  0  0  0  0  0  0  0  0
    1.2056    0.0890    3.8788 C   0  0  0  0  0  0  0  0  0  0  0  0
   -0.0024    0.1730    4.5735 C   0  0  0  0  0  0  0  0  0  0  0  0
   -1.2323    0.1774    3.8884 C   0  0  0  0  0  0  0  0  0  0  0  0
   -1.2102    0.0943    2.4872 C   0  0  0  0  0  0  0  0  0  0  0  0
   -2.5179    0.2666    4.6231 C   0  0  0  0  0  0  0  0  0  0  0  0
   -2.6395    1.0378    5.7928 C   0  0  0  0  0  0  0  0  0  0  0  0
   -3.8483    1.1188    6.4781 C   0  0  0  0  0  0  0  0  0  0  0  0
   -4.9967    0.4373    6.0368 C   0  0  0  0  0  0  0  0  0  0  0  0
   -4.8708   -0.3306    4.8704 C   0  0  0  0  0  0  0  0  0  0  0  0
   -3.6607   -0.4145    4.1786 C   0  0  0  0  0  0  0  0  0  0  0  0
   -6.3093    0.5557    6.8248 C   0  0  0  0  0  0  0  0  0  0  0  0
   -6.7431    2.0362    6.8708 C   0  0  0  0  0  0  0  0  0  0  0  0
   -6.0883    0.0387    8.2621 C   0  0  0  0  0  0  0  0  0  0  0  0
   -7.4441   -0.2603    6.1869 C   0  0  0  0  0  0  0  0  0  0  0  0
   -0.2078   -2.2349   -0.5148 Au  0  0  0  0  0  0  0  0  0  0  0  0
    2.1547   -0.0717    1.9340 H   0  0  0  0  0  0  0  0  0  0  0  0
    2.1488    0.0816    4.4304 H   0  0  0  0  0  0  0  0  0  0  0  0
    0.0045    0.2124    5.6645 H   0  0  0  0  0  0  0  0  0  0  0  0
   -2.1428    0.1223    1.9223 H   0  0  0  0  0  0  0  0  0  0  0  0
   -1.7799    1.6042    6.1577 H   0  0  0  0  0  0  0  0  0  0  0  0
   -3.8967    1.7382    7.3762 H   0  0  0  0  0  0  0  0  0  0  0  0
   -5.7241   -0.8877    4.4846 H   0  0  0  0  0  0  0  0  0  0  0  0
   -3.6009   -1.0430    3.2874 H   0  0  0  0  0  0  0  0  0  0  0  0
   -6.9041    2.4289    5.8548 H   0  0  0  0  0  0  0  0  0  0  0  0
   -7.6843    2.1435    7.4340 H   0  0  0  0  0  0  0  0  0  0  0  0
   -5.9866    2.6685    7.3591 H   0  0  0  0  0  0  0  0  0  0  0  0
   -5.3134    0.6154    8.7888 H   0  0  0  0  0  0  0  0  0  0  0  0
   -5.7750   -1.0169    8.2548 H   0  0  0  0  0  0  0  0  0  0  0  0
   -7.0197    0.1167    8.8462 H   0  0  0  0  0  0  0  0  0  0  0  0
   -8.3634   -0.1471    6.7820 H   0  0  0  0  0  0  0  0  0  0  0  0
   -7.2035   -1.3338    6.1480 H   0  0  0  0  0  0  0  0  0  0  0  0
   -7.6665    0.0796    5.1638 H   0  0  0  0  0  0  0  0  0  0  0  0
  1  2  1  0  0  0  0
  2  3  2  0  0  0  0
  2  7  1  0  0  0  0
  3  4  1  0  0  0  0
  4 20  1  0  0  0  0
  4  5  2  0  0  0  0
  5 21  1  0  0  0  0
  6  5  1  0  0  0  0
  6  8  1  0  0  0  0
  7  6  2  0  0  0  0
  8  9  1  0  0  0  0
  9 23  1  0  0  0  0
  9 10  2  0  0  0  0
 10 24  1  0  0  0  0
 11 10  1  0  0  0  0
 11 14  1  0  0  0  0
 12 11  2  0  0  0  0
 13  8  2  0  0  0  0
 13 12  1  0  0  0  0
 14 15  1  0  0  0  0
 14 16  1  0  0  0  0
 15 29  1  0  0  0  0
 15 28  1  0  0  0  0
 16 30  1  0  0  0  0
 16 32  1  0  0  0  0
 17 33  1  0  0  0  0
 17 14  1  0  0  0  0
 18  1  1  0  0  0  0
 19  3  1  0  0  0  0
 22  7  1  0  0  0  0
 25 12  1  0  0  0  0
 26 13  1  0  0  0  0
 27 15  1  0  0  0  0
 31 16  1  0  0  0  0
 34 17  1  0  0  0  0
 35 17  1  0  0  0  0
M  END
