46482760.xyz
 OpenBabel07262113523D
Cc1ccc(cc1)n1c(C)cc(c1C)/C=C/1\C(=O)N=C(N(C1=O)c1cccc(c1C)C)S
 57 60  0  0  1  0  0  0  0  0999 V2000
   -6.9221    3.7053   10.2012 C   0  0  0  0  0  0  0  0  0  0  0  0
   -5.6582    3.0473    9.7102 C   0  0  0  0  0  0  0  0  0  0  0  0
   -5.7113    2.0343    8.7382 C   0  0  0  0  0  0  0  0  0  0  0  0
   -4.5535    1.4035    8.2881 C   0  0  0  0  0  0  0  0  0  0  0  0
   -3.3073    1.7864    8.7983 C   0  0  0  0  0  0  0  0  0  0  0  0
   -3.2331    2.8000    9.7572 C   0  0  0  0  0  0  0  0  0  0  0  0
   -4.4013    3.4164   10.2098 C   0  0  0  0  0  0  0  0  0  0  0  0
   -2.1252    1.1440    8.3305 N   0  0  0  0  0  0  0  0  0  0  0  0
   -1.2864    0.3409    9.1197 C   0  0  0  0  0  0  0  0  0  0  0  0
   -1.5969    0.0313   10.5454 C   0  0  0  0  0  0  0  0  0  0  0  0
   -0.2650   -0.0838    8.3135 C   0  0  0  0  0  0  0  0  0  0  0  0
   -0.4961    0.4183    6.9793 C   0  0  0  0  0  0  0  0  0  0  0  0
   -1.6636    1.2051    7.0400 C   0  0  0  0  0  0  0  0  0  0  0  0
   -2.2654    2.1173    6.0339 C   0  0  0  0  0  0  0  0  0  0  0  0
    0.3962    0.1951    5.8914 C   0  0  0  0  0  0  0  0  0  0  0  0
    0.2078    0.1570    4.5260 C   0  0  2  0  0  0  0  0  0  0  0  0
   -1.1031   -0.0031    3.8452 C   0  0  0  0  0  0  0  0  0  0  0  0
   -2.1536   -0.1648    4.4473 O   0  0  0  0  0  0  0  0  0  0  0  0
   -1.1024   -0.0120    2.4479 N   0  0  0  0  0  0  0  0  0  0  0  0
   -0.0000    0.0000    1.7753 C   0  0  0  0  0  0  0  0  0  0  0  0
    1.2658   -0.0000    2.3288 N   0  0  0  0  0  0  0  0  0  0  0  0
    1.4514    0.0580    3.7323 C   0  0  0  0  0  0  0  0  0  0  0  0
    2.5806    0.0355    4.1833 O   0  0  0  0  0  0  0  0  0  0  0  0
    2.4384   -0.0547    1.4934 C   0  0  0  0  0  0  0  0  0  0  0  0
    3.0380    1.1501    1.1155 C   0  0  0  0  0  0  0  0  0  0  0  0
    4.1626    1.1277    0.2981 C   0  0  0  0  0  0  0  0  0  0  0  0
    4.6767   -0.0986   -0.1296 C   0  0  0  0  0  0  0  0  0  0  0  0
    4.0888   -1.3107    0.2510 C   0  0  0  0  0  0  0  0  0  0  0  0
    2.9487   -1.2981    1.0860 C   0  0  0  0  0  0  0  0  0  0  0  0
    2.3029   -2.5899    1.5048 C   0  0  0  0  0  0  0  0  0  0  0  0
    4.6633   -2.6197   -0.2241 C   0  0  0  0  0  0  0  0  0  0  0  0
    0.0000    0.0000    0.0000 S   0  0  0  0  0  0  0  0  0  0  0  0
   -6.7047    4.5648   10.8516 H   0  0  0  0  0  0  0  0  0  0  0  0
   -7.5393    2.9958   10.7778 H   0  0  0  0  0  0  0  0  0  0  0  0
   -7.5401    4.0604    9.3611 H   0  0  0  0  0  0  0  0  0  0  0  0
   -6.6791    1.7301    8.3306 H   0  0  0  0  0  0  0  0  0  0  0  0
   -4.6020    0.6104    7.5395 H   0  0  0  0  0  0  0  0  0  0  0  0
   -2.2579    3.1117   10.1355 H   0  0  0  0  0  0  0  0  0  0  0  0
   -4.3324    4.2089   10.9594 H   0  0  0  0  0  0  0  0  0  0  0  0
   -2.6090   -0.3920   10.6582 H   0  0  0  0  0  0  0  0  0  0  0  0
   -1.5476    0.9204   11.1953 H   0  0  0  0  0  0  0  0  0  0  0  0
   -0.8741   -0.7039   10.9250 H   0  0  0  0  0  0  0  0  0  0  0  0
    0.5483   -0.7425    8.6116 H   0  0  0  0  0  0  0  0  0  0  0  0
   -3.0404    1.6032    5.4446 H   0  0  0  0  0  0  0  0  0  0  0  0
   -1.4965    2.4361    5.3163 H   0  0  0  0  0  0  0  0  0  0  0  0
   -2.6998    3.0062    6.5147 H   0  0  0  0  0  0  0  0  0  0  0  0
    1.4358    0.0082    6.1868 H   0  0  0  0  0  0  0  0  0  0  0  0
    2.6073    2.0893    1.4655 H   0  0  0  0  0  0  0  0  0  0  0  0
    4.6392    2.0615   -0.0076 H   0  0  0  0  0  0  0  0  0  0  0  0
    5.5587   -0.1187   -0.7751 H   0  0  0  0  0  0  0  0  0  0  0  0
    1.9235   -3.1416    0.6291 H   0  0  0  0  0  0  0  0  0  0  0  0
    1.4616   -2.4305    2.1891 H   0  0  0  0  0  0  0  0  0  0  0  0
    3.0288   -3.2464    2.0103 H   0  0  0  0  0  0  0  0  0  0  0  0
    5.5387   -2.4601   -0.8693 H   0  0  0  0  0  0  0  0  0  0  0  0
    3.9221   -3.2028   -0.7958 H   0  0  0  0  0  0  0  0  0  0  0  0
    4.9772   -3.2545    0.6214 H   0  0  0  0  0  0  0  0  0  0  0  0
   -2.3058   -0.0664   -0.2579 Au  0  0  0  0  0  0  0  0  0  0  0  0
  1 34  1  0  0  0  0
  1 33  1  0  0  0  0
  2  1  1  0  0  0  0
  2  7  2  0  0  0  0
  3  2  1  0  0  0  0
  4  3  2  0  0  0  0
  4  5  1  0  0  0  0
  5  6  2  0  0  0  0
  6 38  1  0  0  0  0
  6  7  1  0  0  0  0
  7 39  1  0  0  0  0
  8  5  1  0  0  0  0
  8  9  1  0  0  0  0
  9 10  1  0  0  0  0
 10 40  1  0  0  0  0
 10 42  1  0  0  0  0
 10 41  1  0  0  0  0
 11 43  1  0  0  0  0
 11  9  2  0  0  0  0
 12 13  2  0  0  0  0
 12 11  1  0  0  0  0
 13  8  1  0  0  0  0
 14 46  1  0  0  0  0
 14 13  1  0  0  0  0
 15 47  1  0  0  0  0
 15 12  1  0  0  0  0
 16 15  1  1  0  0  0
 17 18  2  0  0  0  0
 17 16  1  0  0  0  0
 19 17  2  0  0  0  0
 20 21  1  0  0  0  0
 20 19  2  0  0  0  0
 21 22  1  0  0  0  0
 22 23  2  0  0  0  0
 22 16  1  0  0  0  0
 24 21  1  0  0  0  0
 25 48  1  0  0  0  0
 25 24  1  0  0  0  0
 26 25  2  0  0  0  0
 27 28  2  0  0  0  0
 27 26  1  0  0  0  0
 28 29  1  0  0  0  0
 29 24  2  0  0  0  0
 29 30  1  0  0  0  0
 30 53  1  0  0  0  0
 30 52  1  0  0  0  0
 31 28  1  0  0  0  0
 31 56  1  0  0  0  0
 32 20  1  0  0  0  0
 35  1  1  0  0  0  0
 36  3  1  0  0  0  0
 37  4  1  0  0  0  0
 44 14  1  0  0  0  0
 45 14  1  0  0  0  0
 49 26  1  0  0  0  0
 50 27  1  0  0  0  0
 51 30  1  0  0  0  0
 54 31  1  0  0  0  0
 55 31  1  0  0  0  0
 57 32  1  0  0  0  0
M  RAD  2  15   2  16   2
M  END
