46488472.xyz
 OpenBabel07262113523D
SC1=NC(=O)/C(=C/c2ccc(o2)c2ccc(c(c2)Cl)F)/S1
 28 30  0  0  0  0  0  0  0  0999 V2000
    0.0000    0.0000    0.0000 S   0  0  0  0  0  0  0  0  0  0  0  0
   -0.0000   -0.0000    1.7456 C   0  0  0  0  0  0  0  0  0  0  0  0
   -1.1032    0.0004    2.3949 N   0  0  0  0  0  0  0  0  0  0  0  0
   -0.9148    0.0005    3.7931 C   0  0  0  0  0  0  0  0  0  0  0  0
   -1.8037    0.0008    4.6094 O   0  0  0  0  0  0  0  0  0  0  0  0
    0.5542    0.0002    4.1537 C   0  0  0  0  0  0  0  0  0  0  0  0
    0.9666   -0.0001    5.4449 C   0  0  0  0  0  0  0  0  0  0  0  0
    2.3033   -0.0003    5.9441 C   0  0  0  0  0  0  0  0  0  0  0  0
    3.5648    0.0003    5.3695 C   0  0  0  0  0  0  0  0  0  0  0  0
    4.5001   -0.0003    6.4347 C   0  0  0  0  0  0  0  0  0  0  0  0
    3.7669   -0.0013    7.6075 C   0  0  0  0  0  0  0  0  0  0  0  0
    2.4450   -0.0013    7.3072 O   0  0  0  0  0  0  0  0  0  0  0  0
    4.1396   -0.0024    9.0138 C   0  0  0  0  0  0  0  0  0  0  0  0
    3.1560   -0.0038   10.0211 C   0  0  0  0  0  0  0  0  0  0  0  0
    3.5211   -0.0048   11.3649 C   0  0  0  0  0  0  0  0  0  0  0  0
    4.8672   -0.0044   11.7199 C   0  0  0  0  0  0  0  0  0  0  0  0
    5.8605   -0.0030   10.7308 C   0  0  0  0  0  0  0  0  0  0  0  0
    5.4963   -0.0020    9.3873 C   0  0  0  0  0  0  0  0  0  0  0  0
    7.5338   -0.0024   11.1982 Cl  0  0  0  0  0  0  0  0  0  0  0  0
    5.2126   -0.0054   13.0061 F   0  0  0  0  0  0  0  0  0  0  0  0
    1.5312   -0.0000    2.6938 S   0  0  0  0  0  0  0  0  0  0  0  0
    2.2487   -0.0056   -0.5178 Au  0  0  0  0  0  0  0  0  0  0  0  0
    0.1648   -0.0001    6.1898 H   0  0  0  0  0  0  0  0  0  0  0  0
    3.7867    0.0013    4.3058 H   0  0  0  0  0  0  0  0  0  0  0  0
    5.5837    0.0000    6.3514 H   0  0  0  0  0  0  0  0  0  0  0  0
    2.1026   -0.0042    9.7415 H   0  0  0  0  0  0  0  0  0  0  0  0
    2.7724   -0.0060   12.1590 H   0  0  0  0  0  0  0  0  0  0  0  0
    6.2859   -0.0008    8.6359 H   0  0  0  0  0  0  0  0  0  0  0  0
  1  2  1  0  0  0  0
  2  3  2  0  0  0  0
  2 21  1  0  0  0  0
  3  4  2  0  0  0  0
  4  6  1  0  0  0  0
  4  5  2  0  0  0  0
  6  7  2  0  0  0  0
  7  8  1  0  0  0  0
  7 23  1  0  0  0  0
  8 12  1  0  0  0  0
  9  8  2  0  0  0  0
  9 10  1  0  0  0  0
 10 11  2  0  0  0  0
 11 13  1  0  0  0  0
 12 11  1  0  0  0  0
 13 18  2  0  0  0  0
 13 14  1  0  0  0  0
 14 15  2  0  0  0  0
 15 16  1  0  0  0  0
 15 27  1  0  0  0  0
 16 20  1  0  0  0  0
 17 19  1  0  0  0  0
 17 16  2  0  0  0  0
 18 17  1  0  0  0  0
 21  6  1  0  0  0  0
 22  1  1  0  0  0  0
 24  9  1  0  0  0  0
 25 10  1  0  0  0  0
 26 14  1  0  0  0  0
 28 18  1  0  0  0  0
M  END
