46489694.xyz
 OpenBabel07262113523D
SC1=NC(=O)/C(=C\C2=C(Oc3c(C2c2ccccc2)cccc3)c2ccccc2)/S1
 47 51  0  0  1  0  0  0  0  0999 V2000
    0.0000    0.0000    0.0000 S   0  0  0  0  0  0  0  0  0  0  0  0
   -0.0000   -0.0000    1.7507 C   0  0  0  0  0  0  0  0  0  0  0  0
   -1.1114   -0.0076    2.3901 N   0  0  0  0  0  0  0  0  0  0  0  0
   -0.9431   -0.0315    3.7894 C   0  0  0  0  0  0  0  0  0  0  0  0
   -1.8613   -0.0094    4.5757 O   0  0  0  0  0  0  0  0  0  0  0  0
    0.5198   -0.0415    4.1734 C   0  0  0  0  0  0  0  0  0  0  0  0
    1.0695    0.0026    5.4132 C   0  0  0  0  0  0  0  0  0  0  0  0
    0.4232   -0.0867    6.7106 C   0  0  0  0  0  0  0  0  0  0  0  0
   -0.5255   -1.0067    7.0353 C   0  0  0  0  0  0  0  0  0  0  0  0
   -1.1839   -0.9844    8.2290 O   0  0  0  0  0  0  0  0  0  0  0  0
   -1.0128    0.0633    9.0969 C   0  0  0  0  0  0  0  0  0  0  0  0
    0.0061    1.0023    8.9205 C   0  0  0  0  0  0  0  0  0  0  0  0
    0.9760    0.8662    7.7660 C   0  0  1  0  0  0  0  0  0  0  0  0
    2.3591    0.4159    8.2282 C   0  0  0  0  0  0  0  0  0  0  0  0
    3.4833    1.2246    8.0271 C   0  0  0  0  0  0  0  0  0  0  0  0
    4.7509    0.8029    8.4439 C   0  0  0  0  0  0  0  0  0  0  0  0
    4.9041   -0.4361    9.0683 C   0  0  0  0  0  0  0  0  0  0  0  0
    3.7847   -1.2517    9.2729 C   0  0  0  0  0  0  0  0  0  0  0  0
    2.5236   -0.8293    8.8538 C   0  0  0  0  0  0  0  0  0  0  0  0
    0.1155    2.0392    9.8555 C   0  0  0  0  0  0  0  0  0  0  0  0
   -0.7615    2.1324   10.9357 C   0  0  0  0  0  0  0  0  0  0  0  0
   -1.7707    1.1745   11.0955 C   0  0  0  0  0  0  0  0  0  0  0  0
   -1.9005    0.1375   10.1746 C   0  0  0  0  0  0  0  0  0  0  0  0
   -0.9459   -2.1624    6.2231 C   0  0  0  0  0  0  0  0  0  0  0  0
   -2.3067   -2.4978    6.1361 C   0  0  0  0  0  0  0  0  0  0  0  0
   -2.7165   -3.5771    5.3546 C   0  0  0  0  0  0  0  0  0  0  0  0
   -1.7738   -4.3381    4.6580 C   0  0  0  0  0  0  0  0  0  0  0  0
   -0.4143   -4.0243    4.7589 C   0  0  0  0  0  0  0  0  0  0  0  0
   -0.0023   -2.9462    5.5405 C   0  0  0  0  0  0  0  0  0  0  0  0
    1.5075   -0.0000    2.7014 S   0  0  0  0  0  0  0  0  0  0  0  0
    2.2501   -0.0065   -0.5082 Au  0  0  0  0  0  0  0  0  0  0  0  0
    2.1508    0.1883    5.4654 H   0  0  0  0  0  0  0  0  0  0  0  0
    1.0955    1.8618    7.3090 H   0  0  0  0  0  0  0  0  0  0  0  0
    3.3647    2.1963    7.5393 H   0  0  0  0  0  0  0  0  0  0  0  0
    5.6192    1.4458    8.2795 H   0  0  0  0  0  0  0  0  0  0  0  0
    5.8922   -0.7681    9.3957 H   0  0  0  0  0  0  0  0  0  0  0  0
    3.8975   -2.2223    9.7620 H   0  0  0  0  0  0  0  0  0  0  0  0
    1.6532   -1.4706    9.0131 H   0  0  0  0  0  0  0  0  0  0  0  0
    0.9134    2.7761    9.7313 H   0  0  0  0  0  0  0  0  0  0  0  0
   -0.6590    2.9481   11.6544 H   0  0  0  0  0  0  0  0  0  0  0  0
   -2.4615    1.2384   11.9391 H   0  0  0  0  0  0  0  0  0  0  0  0
   -2.6787   -0.6219   10.2660 H   0  0  0  0  0  0  0  0  0  0  0  0
   -3.0390   -1.8869    6.6638 H   0  0  0  0  0  0  0  0  0  0  0  0
   -3.7791   -3.8193    5.2796 H   0  0  0  0  0  0  0  0  0  0  0  0
   -2.0967   -5.1806    4.0417 H   0  0  0  0  0  0  0  0  0  0  0  0
    0.3286   -4.6288    4.2333 H   0  0  0  0  0  0  0  0  0  0  0  0
    1.0587   -2.7096    5.6313 H   0  0  0  0  0  0  0  0  0  0  0  0
  1  2  1  0  0  0  0
  2  3  2  0  0  0  0
  2 30  1  0  0  0  0
  3  4  2  0  0  0  0
  4  6  1  0  0  0  0
  4  5  2  0  0  0  0
  6  7  2  0  0  0  0
  7 32  1  0  0  0  0
  7  8  1  0  0  0  0
  8  9  2  0  0  0  0
  8 13  1  0  0  0  0
  9 10  1  0  0  0  0
 10 11  1  0  0  0  0
 11 23  1  0  0  0  0
 12 11  2  0  0  0  0
 12 20  1  0  0  0  0
 13 33  1  6  0  0  0
 13 14  1  0  0  0  0
 13 12  1  0  0  0  0
 14 19  1  0  0  0  0
 15 14  2  0  0  0  0
 15 16  1  0  0  0  0
 16 17  2  0  0  0  0
 17 18  1  0  0  0  0
 17 36  1  0  0  0  0
 18 37  1  0  0  0  0
 19 38  1  0  0  0  0
 19 18  2  0  0  0  0
 20 21  2  0  0  0  0
 21 22  1  0  0  0  0
 21 40  1  0  0  0  0
 22 41  1  0  0  0  0
 23 42  1  0  0  0  0
 23 22  2  0  0  0  0
 24  9  1  0  0  0  0
 25 24  1  0  0  0  0
 25 43  1  0  0  0  0
 26 25  2  0  0  0  0
 27 28  2  0  0  0  0
 27 26  1  0  0  0  0
 28 29  1  0  0  0  0
 29 47  1  0  0  0  0
 29 24  2  0  0  0  0
 30  6  1  0  0  0  0
 31  1  1  0  0  0  0
 34 15  1  0  0  0  0
 35 16  1  0  0  0  0
 39 20  1  0  0  0  0
 44 26  1  0  0  0  0
 45 27  1  0  0  0  0
 46 28  1  0  0  0  0
M  END
