46489500.xyz
 OpenBabel07262113523D
Cc1ccc(cc1)n1c(C)cc(c1C)/C=C/1\C(=O)N=C(N(C1=O)c1cccc(c1)Cl)S
 51 54  0  0  1  0  0  0  0  0999 V2000
   -7.0268    3.9168   10.0029 C   0  0  0  0  0  0  0  0  0  0  0  0
   -5.7473    3.2647    9.5453 C   0  0  0  0  0  0  0  0  0  0  0  0
   -4.4988    3.7005   10.0111 C   0  0  0  0  0  0  0  0  0  0  0  0
   -3.3160    3.0888    9.5911 C   0  0  0  0  0  0  0  0  0  0  0  0
   -3.3668    2.0139    8.7000 C   0  0  0  0  0  0  0  0  0  0  0  0
   -4.6040    1.5640    8.2241 C   0  0  0  0  0  0  0  0  0  0  0  0
   -5.7769    2.1900    8.6409 C   0  0  0  0  0  0  0  0  0  0  0  0
   -2.1688    1.3760    8.2667 N   0  0  0  0  0  0  0  0  0  0  0  0
   -1.3090    0.6417    9.0997 C   0  0  0  0  0  0  0  0  0  0  0  0
   -1.6124    0.4066   10.5411 C   0  0  0  0  0  0  0  0  0  0  0  0
   -0.2761    0.1998    8.3184 C   0  0  0  0  0  0  0  0  0  0  0  0
   -0.5193    0.6195    6.9579 C   0  0  0  0  0  0  0  0  0  0  0  0
   -1.7085    1.3767    6.9750 C   0  0  0  0  0  0  0  0  0  0  0  0
   -2.3362    2.2115    5.9190 C   0  0  0  0  0  0  0  0  0  0  0  0
    0.3799    0.3587    5.8855 C   0  0  0  0  0  0  0  0  0  0  0  0
    0.1979    0.2512    4.5222 C   0  0  2  0  0  0  0  0  0  0  0  0
   -1.1055    0.0344    3.8446 C   0  0  0  0  0  0  0  0  0  0  0  0
   -2.1519   -0.1462    4.4475 O   0  0  0  0  0  0  0  0  0  0  0  0
   -1.1016    0.0042    2.4468 N   0  0  0  0  0  0  0  0  0  0  0  0
   -0.0000    0.0000    1.7747 C   0  0  0  0  0  0  0  0  0  0  0  0
    1.2651    0.0000    2.3371 N   0  0  0  0  0  0  0  0  0  0  0  0
    1.4450    0.1363    3.7395 C   0  0  0  0  0  0  0  0  0  0  0  0
    2.5736    0.1640    4.1907 O   0  0  0  0  0  0  0  0  0  0  0  0
    2.4437   -0.0885    1.5193 C   0  0  0  0  0  0  0  0  0  0  0  0
    2.9026   -1.3391    1.0991 C   0  0  0  0  0  0  0  0  0  0  0  0
    4.0421   -1.4151    0.2975 C   0  0  0  0  0  0  0  0  0  0  0  0
    4.7255   -0.2561   -0.0761 C   0  0  0  0  0  0  0  0  0  0  0  0
    4.2564    0.9854    0.3634 C   0  0  0  0  0  0  0  0  0  0  0  0
    3.1175    1.0815    1.1623 C   0  0  0  0  0  0  0  0  0  0  0  0
    5.1062    2.4401   -0.0961 Cl  0  0  0  0  0  0  0  0  0  0  0  0
    0.0000    0.0000    0.0000 S   0  0  0  0  0  0  0  0  0  0  0  0
   -6.8306    4.8285   10.5853 H   0  0  0  0  0  0  0  0  0  0  0  0
   -7.6652    4.1885    9.1471 H   0  0  0  0  0  0  0  0  0  0  0  0
   -7.6139    3.2325   10.6385 H   0  0  0  0  0  0  0  0  0  0  0  0
   -4.4485    4.5414   10.7074 H   0  0  0  0  0  0  0  0  0  0  0  0
   -2.3480    3.4510    9.9420 H   0  0  0  0  0  0  0  0  0  0  0  0
   -4.6340    0.7234    7.5282 H   0  0  0  0  0  0  0  0  0  0  0  0
   -6.7378    1.8333    8.2606 H   0  0  0  0  0  0  0  0  0  0  0  0
   -0.8680   -0.2821   10.9632 H   0  0  0  0  0  0  0  0  0  0  0  0
   -1.5920    1.3337   11.1371 H   0  0  0  0  0  0  0  0  0  0  0  0
   -2.6111   -0.0406   10.6783 H   0  0  0  0  0  0  0  0  0  0  0  0
    0.5548   -0.4183    8.6527 H   0  0  0  0  0  0  0  0  0  0  0  0
   -1.5753    2.5189    5.1879 H   0  0  0  0  0  0  0  0  0  0  0  0
   -3.0888    1.6381    5.3554 H   0  0  0  0  0  0  0  0  0  0  0  0
   -2.8052    3.1085    6.3492 H   0  0  0  0  0  0  0  0  0  0  0  0
    1.4213    0.2056    6.1935 H   0  0  0  0  0  0  0  0  0  0  0  0
    2.3606   -2.2371    1.3979 H   0  0  0  0  0  0  0  0  0  0  0  0
    4.4062   -2.3877   -0.0403 H   0  0  0  0  0  0  0  0  0  0  0  0
    5.6175   -0.3053   -0.7017 H   0  0  0  0  0  0  0  0  0  0  0  0
    2.7547    2.0509    1.5023 H   0  0  0  0  0  0  0  0  0  0  0  0
   -2.3073   -0.0019   -0.2549 Au  0  0  0  0  0  0  0  0  0  0  0  0
  1 32  1  0  0  0  0
  1 34  1  0  0  0  0
  2  1  1  0  0  0  0
  2  3  2  0  0  0  0
  3 35  1  0  0  0  0
  4 36  1  0  0  0  0
  4  3  1  0  0  0  0
  5  4  2  0  0  0  0
  6  7  2  0  0  0  0
  6  5  1  0  0  0  0
  7  2  1  0  0  0  0
  8  5  1  0  0  0  0
  8  9  1  0  0  0  0
  9 10  1  0  0  0  0
 10 41  1  0  0  0  0
 10 39  1  0  0  0  0
 10 40  1  0  0  0  0
 11 42  1  0  0  0  0
 11  9  2  0  0  0  0
 12 13  2  0  0  0  0
 12 11  1  0  0  0  0
 13  8  1  0  0  0  0
 14 45  1  0  0  0  0
 14 13  1  0  0  0  0
 15 46  1  0  0  0  0
 15 12  1  0  0  0  0
 16 15  1  1  0  0  0
 17 18  2  0  0  0  0
 17 16  1  0  0  0  0
 19 17  2  0  0  0  0
 20 21  1  0  0  0  0
 20 19  2  0  0  0  0
 21 22  1  0  0  0  0
 22 23  2  0  0  0  0
 22 16  1  0  0  0  0
 24 21  1  0  0  0  0
 25 47  1  0  0  0  0
 25 24  2  0  0  0  0
 26 25  1  0  0  0  0
 27 26  2  0  0  0  0
 27 28  1  0  0  0  0
 28 29  2  0  0  0  0
 29 50  1  0  0  0  0
 29 24  1  0  0  0  0
 30 28  1  0  0  0  0
 31 20  1  0  0  0  0
 33  1  1  0  0  0  0
 37  6  1  0  0  0  0
 38  7  1  0  0  0  0
 43 14  1  0  0  0  0
 44 14  1  0  0  0  0
 48 26  1  0  0  0  0
 49 27  1  0  0  0  0
 51 31  1  0  0  0  0
M  RAD  2  15   2  16   2
M  END
