46496923.xyz
 OpenBabel07262113533D
SC1=NC(=O)/C(=C/c2cc([nH]c2C)C)/C(=N1)O
 28 29  0  0  0  0  0  0  0  0999 V2000
    0.0000    0.0000    0.0000 S   0  0  0  0  0  0  0  0  0  0  0  0
    0.0000   -0.0000    1.7703 C   0  0  0  0  0  0  0  0  0  0  0  0
    1.1884   -0.0000    2.2842 N   0  0  0  0  0  0  0  0  0  0  0  0
    1.3300    0.0029    3.6659 C   0  0  0  0  0  0  0  0  0  0  0  0
    2.4269    0.0016    4.1986 O   0  0  0  0  0  0  0  0  0  0  0  0
    0.0580    0.0083    4.4871 C   0  0  0  0  0  0  0  0  0  0  0  0
    0.2420    0.0062    5.8539 C   0  0  0  0  0  0  0  0  0  0  0  0
   -0.5684    0.0248    7.0231 C   0  0  0  0  0  0  0  0  0  0  0  0
   -1.9944    0.0979    7.2565 C   0  0  0  0  0  0  0  0  0  0  0  0
   -2.2068    0.0872    8.6098 C   0  0  0  0  0  0  0  0  0  0  0  0
   -0.9564    0.0081    9.2204 N   0  0  0  0  0  0  0  0  0  0  0  0
    0.0403   -0.0274    8.3026 C   0  0  0  0  0  0  0  0  0  0  0  0
    1.4727   -0.1510    8.7006 C   0  0  0  0  0  0  0  0  0  0  0  0
   -3.4621    0.1521    9.4124 C   0  0  0  0  0  0  0  0  0  0  0  0
   -1.1654    0.0038    3.7265 C   0  0  0  0  0  0  0  0  0  0  0  0
   -1.2104   -0.0005    2.4224 N   0  0  0  0  0  0  0  0  0  0  0  0
   -2.3400   -0.0016    4.3648 O   0  0  0  0  0  0  0  0  0  0  0  0
   -2.2365   -0.0058   -0.5394 Au  0  0  0  0  0  0  0  0  0  0  0  0
    1.3174   -0.0139    6.0671 H   0  0  0  0  0  0  0  0  0  0  0  0
   -2.7591    0.1588    6.4938 H   0  0  0  0  0  0  0  0  0  0  0  0
   -0.8079   -0.0176   10.2223 H   0  0  0  0  0  0  0  0  0  0  0  0
    1.6499    0.3077    9.6858 H   0  0  0  0  0  0  0  0  0  0  0  0
    2.1340    0.3425    7.9759 H   0  0  0  0  0  0  0  0  0  0  0  0
    1.7859   -1.2077    8.7613 H   0  0  0  0  0  0  0  0  0  0  0  0
   -4.3309    0.2067    8.7429 H   0  0  0  0  0  0  0  0  0  0  0  0
   -3.5878   -0.7374   10.0541 H   0  0  0  0  0  0  0  0  0  0  0  0
   -3.4869    1.0398   10.0683 H   0  0  0  0  0  0  0  0  0  0  0  0
   -3.0159   -0.0112    3.6641 H   0  0  0  0  0  0  0  0  0  0  0  0
  1  2  1  0  0  0  0
  2  3  2  0  0  0  0
  2 16  2  0  0  0  0
  3  4  2  0  0  0  0
  4  5  2  0  0  0  0
  4  6  1  0  0  0  0
  6  7  2  0  0  0  0
  7 19  1  0  0  0  0
  7  8  1  0  0  0  0
  8  9  1  0  0  0  0
  8 12  2  0  0  0  0
  9 10  2  0  0  0  0
 10 11  1  0  0  0  0
 10 14  1  0  0  0  0
 11 21  1  0  0  0  0
 12 13  1  0  0  0  0
 12 11  1  0  0  0  0
 13 24  1  0  0  0  0
 13 22  1  0  0  0  0
 14 26  1  0  0  0  0
 14 27  1  0  0  0  0
 15 17  1  0  0  0  0
 15  6  1  0  0  0  0
 16 15  2  0  0  0  0
 18  1  1  0  0  0  0
 20  9  1  0  0  0  0
 23 13  1  0  0  0  0
 25 14  1  0  0  0  0
 28 17  1  0  0  0  0
M  END
