46490124.xyz
 OpenBabel07262113523D
O=C(CN1c2ccccc2/C(=C\2/SC(=NC2=O)S)/C1=O)Nc1cccc(c1)Cl
 40 43  0  0  0  0  0  0  0  0999 V2000
    5.1460   -1.9206    8.5277 O   0  0  0  0  0  0  0  0  0  0  0  0
    4.8521   -1.4051    7.4663 C   0  0  0  0  0  0  0  0  0  0  0  0
    4.2411    0.0048    7.3947 C   0  0  0  0  0  0  0  0  0  0  0  0
    2.8860   -0.0064    6.8811 N   0  0  0  0  0  0  0  0  0  0  0  0
    1.7016   -0.0749    7.6370 C   0  0  0  0  0  0  0  0  0  0  0  0
    1.5761   -0.1658    9.0146 C   0  0  0  0  0  0  0  0  0  0  0  0
    0.2772   -0.2063    9.5454 C   0  0  0  0  0  0  0  0  0  0  0  0
   -0.8441   -0.1632    8.7120 C   0  0  0  0  0  0  0  0  0  0  0  0
   -0.7067   -0.0901    7.3201 C   0  0  0  0  0  0  0  0  0  0  0  0
    0.5783   -0.0506    6.7652 C   0  0  0  0  0  0  0  0  0  0  0  0
    1.1048   -0.0104    5.3993 C   0  0  0  0  0  0  0  0  0  0  0  0
    0.5634   -0.0030    4.1492 C   0  0  0  0  0  0  0  0  0  0  0  0
    1.5350    0.0000    2.6769 S   0  0  0  0  0  0  0  0  0  0  0  0
   -0.0000   -0.0000    1.7411 C   0  0  0  0  0  0  0  0  0  0  0  0
   -1.1079   -0.0026    2.3917 N   0  0  0  0  0  0  0  0  0  0  0  0
   -0.9144   -0.0029    3.7767 C   0  0  0  0  0  0  0  0  0  0  0  0
   -1.8124   -0.0007    4.5858 O   0  0  0  0  0  0  0  0  0  0  0  0
    0.0000    0.0000    0.0000 S   0  0  0  0  0  0  0  0  0  0  0  0
    2.5999   -0.0114    5.5409 C   0  0  0  0  0  0  0  0  0  0  0  0
    3.4360   -0.0434    4.6410 O   0  0  0  0  0  0  0  0  0  0  0  0
    4.9929   -1.9727    6.2278 N   0  0  0  0  0  0  0  0  0  0  0  0
    5.4042   -3.2747    5.9019 C   0  0  0  0  0  0  0  0  0  0  0  0
    5.3207   -3.6578    4.5510 C   0  0  0  0  0  0  0  0  0  0  0  0
    5.7160   -4.9352    4.1619 C   0  0  0  0  0  0  0  0  0  0  0  0
    6.1956   -5.8530    5.0998 C   0  0  0  0  0  0  0  0  0  0  0  0
    6.2684   -5.4579    6.4372 C   0  0  0  0  0  0  0  0  0  0  0  0
    5.8823   -4.1845    6.8585 C   0  0  0  0  0  0  0  0  0  0  0  0
    6.8635   -6.5904    7.6294 Cl  0  0  0  0  0  0  0  0  0  0  0  0
    4.8464    0.6423    6.7315 H   0  0  0  0  0  0  0  0  0  0  0  0
    4.2510    0.4278    8.4050 H   0  0  0  0  0  0  0  0  0  0  0  0
    2.4517   -0.2280    9.6619 H   0  0  0  0  0  0  0  0  0  0  0  0
    0.1477   -0.2793   10.6276 H   0  0  0  0  0  0  0  0  0  0  0  0
   -1.8443   -0.1963    9.1484 H   0  0  0  0  0  0  0  0  0  0  0  0
   -1.5738   -0.0680    6.6652 H   0  0  0  0  0  0  0  0  0  0  0  0
    2.2553    0.0296   -0.4985 Au  0  0  0  0  0  0  0  0  0  0  0  0
    4.6986   -1.3931    5.4397 H   0  0  0  0  0  0  0  0  0  0  0  0
    4.9354   -2.9481    3.8146 H   0  0  0  0  0  0  0  0  0  0  0  0
    5.6467   -5.2247    3.1108 H   0  0  0  0  0  0  0  0  0  0  0  0
    6.5065   -6.8562    4.8074 H   0  0  0  0  0  0  0  0  0  0  0  0
    5.9438   -3.8959    7.9039 H   0  0  0  0  0  0  0  0  0  0  0  0
  2  1  2  0  0  0  0
  3  2  1  0  0  0  0
  3 30  1  0  0  0  0
  4  3  1  0  0  0  0
  4  5  1  0  0  0  0
  5  6  2  0  0  0  0
  6  7  1  0  0  0  0
  6 31  1  0  0  0  0
  7 32  1  0  0  0  0
  8 33  1  0  0  0  0
  8  7  2  0  0  0  0
  9  8  1  0  0  0  0
 10  9  2  0  0  0  0
 10  5  1  0  0  0  0
 11 19  1  0  0  0  0
 11 10  1  0  0  0  0
 12 11  2  0  0  0  0
 13 12  1  0  0  0  0
 14 15  2  0  0  0  0
 14 13  1  0  0  0  0
 15 16  2  0  0  0  0
 16 12  1  0  0  0  0
 16 17  2  0  0  0  0
 18 14  1  0  0  0  0
 19  4  1  0  0  0  0
 20 19  2  0  0  0  0
 21  2  1  0  0  0  0
 22 21  1  0  0  0  0
 22 27  2  0  0  0  0
 23 22  1  0  0  0  0
 24 23  2  0  0  0  0
 24 25  1  0  0  0  0
 25 26  2  0  0  0  0
 26 27  1  0  0  0  0
 26 28  1  0  0  0  0
 27 40  1  0  0  0  0
 29  3  1  0  0  0  0
 34  9  1  0  0  0  0
 35 18  1  0  0  0  0
 36 21  1  0  0  0  0
 37 23  1  0  0  0  0
 38 24  1  0  0  0  0
 39 25  1  0  0  0  0
M  END
