46502810.xyz
 OpenBabel07262113533D
Brc1ccc(cc1)N1C(=NC(=O)/C(=C/c2cc(n(c2C)c2cccnc2)C)/C1=O)S
 47 50  0  0  1  0  0  0  0  0999 V2000
   -6.5537    1.3375   -0.0376 Br  0  0  0  0  0  0  0  0  0  0  0  0
   -4.8939    0.9405    0.8041 C   0  0  0  0  0  0  0  0  0  0  0  0
   -3.9081    1.9258    0.8869 C   0  0  0  0  0  0  0  0  0  0  0  0
   -2.6868    1.6207    1.4908 C   0  0  0  0  0  0  0  0  0  0  0  0
   -2.4483    0.3388    1.9897 C   0  0  0  0  0  0  0  0  0  0  0  0
   -3.4552   -0.6339    1.9348 C   0  0  0  0  0  0  0  0  0  0  0  0
   -4.6820   -0.3371    1.3373 C   0  0  0  0  0  0  0  0  0  0  0  0
   -1.1682    0.0241    2.5415 N   0  0  0  0  0  0  0  0  0  0  0  0
    0.0000   -0.0000    1.7823 C   0  0  0  0  0  0  0  0  0  0  0  0
    1.1849   -0.0000    2.2725 N   0  0  0  0  0  0  0  0  0  0  0  0
    1.4077    0.0263    3.6489 C   0  0  0  0  0  0  0  0  0  0  0  0
    2.5233    0.2153    4.0980 O   0  0  0  0  0  0  0  0  0  0  0  0
    0.2258   -0.2551    4.5271 C   0  0  0  0  0  0  0  0  0  0  0  0
    0.5232   -0.4855    5.8534 C   0  0  0  0  0  0  0  0  0  0  0  0
   -0.2061   -0.7945    7.0364 C   0  0  0  0  0  0  0  0  0  0  0  0
   -1.6154   -0.9744    7.3037 C   0  0  0  0  0  0  0  0  0  0  0  0
   -1.7645   -1.2774    8.6286 C   0  0  0  0  0  0  0  0  0  0  0  0
   -0.4816   -1.2906    9.2062 N   0  0  0  0  0  0  0  0  0  0  0  0
    0.4666   -1.0011    8.2648 C   0  0  0  0  0  0  0  0  0  0  0  0
    1.9165   -0.9658    8.6102 C   0  0  0  0  0  0  0  0  0  0  0  0
   -0.2170   -1.5636   10.5770 C   0  0  2  0  0  0  0  0  0  0  0  0
   -0.2347   -2.8724   11.0658 C   0  0  0  0  0  0  0  0  0  0  0  0
    0.0267   -3.0760   12.4203 C   0  0  0  0  0  0  0  0  0  0  0  0
    0.3002   -1.9627   13.2223 C   0  0  0  0  0  0  0  0  0  0  0  0
    0.3184   -0.7111   12.7581 N   0  0  0  0  0  0  0  0  0  0  0  0
    0.0610   -0.5170   11.4660 C   0  0  0  0  0  0  0  0  0  0  0  0
   -2.9865   -1.5340    9.4434 C   0  0  0  0  0  0  0  0  0  0  0  0
   -1.1173   -0.2132    3.9536 C   0  0  0  0  0  0  0  0  0  0  0  0
   -2.1710   -0.3228    4.5546 O   0  0  0  0  0  0  0  0  0  0  0  0
    0.0000    0.0000    0.0000 S   0  0  0  0  0  0  0  0  0  0  0  0
   -4.0894    2.9207    0.4788 H   0  0  0  0  0  0  0  0  0  0  0  0
   -1.8990    2.3733    1.5460 H   0  0  0  0  0  0  0  0  0  0  0  0
   -3.2725   -1.6208    2.3599 H   0  0  0  0  0  0  0  0  0  0  0  0
   -5.4696   -1.0900    1.2879 H   0  0  0  0  0  0  0  0  0  0  0  0
    1.6047   -0.4090    6.0067 H   0  0  0  0  0  0  0  0  0  0  0  0
   -2.4033   -0.8672    6.5684 H   0  0  0  0  0  0  0  0  0  0  0  0
    2.5308   -0.8111    7.7153 H   0  0  0  0  0  0  0  0  0  0  0  0
    2.1460   -0.1541    9.3201 H   0  0  0  0  0  0  0  0  0  0  0  0
    2.2363   -1.9077    9.0852 H   0  0  0  0  0  0  0  0  0  0  0  0
   -0.4454   -3.7035   10.3895 H   0  0  0  0  0  0  0  0  0  0  0  0
    0.0246   -4.0800   12.8491 H   0  0  0  0  0  0  0  0  0  0  0  0
    0.5131   -2.0919   14.2893 H   0  0  0  0  0  0  0  0  0  0  0  0
    0.0691    0.5146   11.0957 H   0  0  0  0  0  0  0  0  0  0  0  0
   -3.8764   -1.4243    8.8095 H   0  0  0  0  0  0  0  0  0  0  0  0
   -2.9986   -2.5493    9.8743 H   0  0  0  0  0  0  0  0  0  0  0  0
   -3.0753   -0.8262   10.2848 H   0  0  0  0  0  0  0  0  0  0  0  0
   -1.9840   -0.9495   -0.7159 Au  0  0  0  0  0  0  0  0  0  0  0  0
  1  2  1  0  0  0  0
  2  3  2  0  0  0  0
  2  7  1  0  0  0  0
  3  4  1  0  0  0  0
  4 32  1  0  0  0  0
  4  5  2  0  0  0  0
  5  8  1  0  0  0  0
  6  5  1  0  0  0  0
  6 33  1  0  0  0  0
  7  6  2  0  0  0  0
  8 28  1  0  0  0  0
  9 10  2  0  0  0  0
  9  8  1  0  0  0  0
 10 11  2  0  0  0  0
 11 12  2  0  0  0  0
 11 13  1  0  0  0  0
 13 14  2  0  0  0  0
 14 35  1  0  0  0  0
 14 15  1  0  0  0  0
 15 16  1  0  0  0  0
 15 19  2  0  0  0  0
 16 17  2  0  0  0  0
 17 18  1  0  0  0  0
 17 27  1  0  0  0  0
 19 20  1  0  0  0  0
 19 18  1  0  0  0  0
 20 39  1  0  0  0  0
 20 38  1  0  0  0  0
 21 18  1  1  0  0  0
 21 22  1  0  0  0  0
 21 26  1  0  0  0  0
 22 23  2  0  0  0  0
 23 41  1  0  0  0  0
 23 24  1  0  0  0  0
 24 42  1  0  0  0  0
 25 24  2  0  0  0  0
 26 25  2  0  0  0  0
 27 45  1  0  0  0  0
 27 46  1  0  0  0  0
 28 13  1  0  0  0  0
 28 29  2  0  0  0  0
 30  9  1  0  0  0  0
 31  3  1  0  0  0  0
 34  7  1  0  0  0  0
 36 16  1  0  0  0  0
 37 20  1  0  0  0  0
 40 22  1  0  0  0  0
 43 26  1  0  0  0  0
 44 27  1  0  0  0  0
 47 30  1  0  0  0  0
M  RAD  1  21   2
M  END
