46500463.xyz
 OpenBabel07262113533D
CN1CCN2C(C1)C1(Cc3c2ccc(c3)N/C=C\2/C(=O)N=C(N(C2=O)C(C)C)S)C(=NC(=NC1=O)O)O
 64 68  0  0  1  0  0  0  0  0999 V2000
   -2.0196   -2.3962   15.1505 C   0  0  0  0  0  0  0  0  0  0  0  0
   -1.8308   -2.4460   13.7136 N   0  0  0  0  0  0  0  0  0  0  0  0
   -0.5234   -1.9977   13.2485 C   0  0  0  0  0  0  0  0  0  0  0  0
   -0.4293   -0.4653   13.1555 C   0  0  0  0  0  0  0  0  0  0  0  0
   -1.5130    0.0455   12.3138 N   0  0  0  0  0  0  0  0  0  0  0  0
   -2.8041   -0.3248   12.8948 C   0  0  2  0  0  0  0  0  0  0  0  0
   -2.9197   -1.8668   12.9375 C   0  0  0  0  0  0  0  0  0  0  0  0
   -3.9685    0.4097   12.1586 C   0  0  2  0  0  0  0  0  0  0  0  0
   -3.9393    0.0316   10.6779 C   0  0  0  0  0  0  0  0  0  0  0  0
   -2.5485    0.0153   10.0930 C   0  0  0  0  0  0  0  0  0  0  0  0
   -1.3950   -0.0174   10.9170 C   0  0  0  0  0  0  0  0  0  0  0  0
   -0.1363   -0.0541   10.2794 C   0  0  0  0  0  0  0  0  0  0  0  0
   -0.0091   -0.0496    8.8957 C   0  0  0  0  0  0  0  0  0  0  0  0
   -1.1508   -0.0111    8.0847 C   0  0  0  0  0  0  0  0  0  0  0  0
   -2.4045    0.0230    8.7061 C   0  0  0  0  0  0  0  0  0  0  0  0
   -1.1011   -0.0054    6.6811 N   0  0  0  0  0  0  0  0  0  0  0  0
   -0.0248   -0.0052    5.8991 C   0  0  0  0  0  0  0  0  0  0  0  0
   -0.0557   -0.0014    4.5104 C   0  0  2  0  0  0  0  0  0  0  0  0
    1.2275   -0.0005    3.7894 C   0  0  0  0  0  0  0  0  0  0  0  0
    2.3101   -0.0001    4.3558 O   0  0  0  0  0  0  0  0  0  0  0  0
    1.1413    0.0000    2.3973 N   0  0  0  0  0  0  0  0  0  0  0  0
    0.0000   -0.0000    1.7832 C   0  0  0  0  0  0  0  0  0  0  0  0
   -1.2440    0.0007    2.3986 N   0  0  0  0  0  0  0  0  0  0  0  0
   -1.3153    0.0019    3.8045 C   0  0  0  0  0  0  0  0  0  0  0  0
   -2.4185    0.0055    4.3681 O   0  0  0  0  0  0  0  0  0  0  0  0
   -2.5128   -0.0008    1.6169 C   0  0  0  0  0  0  0  0  0  0  0  0
   -3.3133    1.2834    1.8338 C   0  0  0  0  0  0  0  0  0  0  0  0
   -3.3142   -1.2833    1.8404 C   0  0  0  0  0  0  0  0  0  0  0  0
    0.0000    0.0000    0.0000 S   0  0  0  0  0  0  0  0  0  0  0  0
   -3.7907    1.8839   12.4046 C   0  0  0  0  0  0  0  0  0  0  0  0
   -4.2600    2.4931   13.4416 N   0  0  0  0  0  0  0  0  0  0  0  0
   -5.0604    1.7315   14.2846 C   0  0  0  0  0  0  0  0  0  0  0  0
   -5.5973    0.5812   14.0479 N   0  0  0  0  0  0  0  0  0  0  0  0
   -5.2913   -0.0362   12.8506 C   0  0  0  0  0  0  0  0  0  0  0  0
   -5.9497   -0.9374   12.3823 O   0  0  0  0  0  0  0  0  0  0  0  0
   -5.3084    2.3220   15.4483 O   0  0  0  0  0  0  0  0  0  0  0  0
   -3.1040    2.5594   11.5034 O   0  0  0  0  0  0  0  0  0  0  0  0
   -2.9880   -2.8506   15.4101 H   0  0  0  0  0  0  0  0  0  0  0  0
   -1.2298   -2.9818   15.6469 H   0  0  0  0  0  0  0  0  0  0  0  0
   -2.0055   -1.3777   15.5990 H   0  0  0  0  0  0  0  0  0  0  0  0
    0.2556   -2.3990   13.9161 H   0  0  0  0  0  0  0  0  0  0  0  0
   -0.3445   -2.4176   12.2430 H   0  0  0  0  0  0  0  0  0  0  0  0
    0.5470   -0.1359   12.7794 H   0  0  0  0  0  0  0  0  0  0  0  0
   -0.5446   -0.0136   14.1541 H   0  0  0  0  0  0  0  0  0  0  0  0
   -2.7954    0.0345   13.9352 H   0  0  0  0  0  0  0  0  0  0  0  0
   -2.8692   -2.2564   11.9074 H   0  0  0  0  0  0  0  0  0  0  0  0
   -3.8797   -2.1863   13.3644 H   0  0  0  0  0  0  0  0  0  0  0  0
   -4.4122   -0.9588   10.5956 H   0  0  0  0  0  0  0  0  0  0  0  0
   -4.5823    0.7167   10.1048 H   0  0  0  0  0  0  0  0  0  0  0  0
    0.7767   -0.0818   10.8710 H   0  0  0  0  0  0  0  0  0  0  0  0
    0.9900   -0.0802    8.4601 H   0  0  0  0  0  0  0  0  0  0  0  0
   -3.3047    0.0556    8.0855 H   0  0  0  0  0  0  0  0  0  0  0  0
   -1.9838   -0.0003    6.1495 H   0  0  0  0  0  0  0  0  0  0  0  0
    0.9658   -0.0077    6.3613 H   0  0  0  0  0  0  0  0  0  0  0  0
   -2.1891   -0.0037    0.5677 H   0  0  0  0  0  0  0  0  0  0  0  0
   -3.6948    1.3461    2.8605 H   0  0  0  0  0  0  0  0  0  0  0  0
   -4.1655    1.3028    1.1368 H   0  0  0  0  0  0  0  0  0  0  0  0
   -2.6867    2.1651    1.6293 H   0  0  0  0  0  0  0  0  0  0  0  0
   -4.1661   -1.3058    1.1432 H   0  0  0  0  0  0  0  0  0  0  0  0
   -3.6962   -1.3408    2.8672 H   0  0  0  0  0  0  0  0  0  0  0  0
   -2.6881   -2.1665    1.6407 H   0  0  0  0  0  0  0  0  0  0  0  0
    2.3199   -0.0046   -0.2075 Au  0  0  0  0  0  0  0  0  0  0  0  0
   -4.8626    3.1842   15.4304 H   0  0  0  0  0  0  0  0  0  0  0  0
   -3.0539    3.4856   11.8015 H   0  0  0  0  0  0  0  0  0  0  0  0
  1 38  1  0  0  0  0
  1 40  1  0  0  0  0
  1 39  1  0  0  0  0
  2  1  1  0  0  0  0
  3  2  1  0  0  0  0
  3 41  1  0  0  0  0
  4  3  1  0  0  0  0
  4 44  1  0  0  0  0
  5  6  1  0  0  0  0
  5  4  1  0  0  0  0
  6  8  1  6  0  0  0
  6  7  1  0  0  0  0
  6 45  1  0  0  0  0
  7 47  1  0  0  0  0
  7  2  1  0  0  0  0
  8 30  1  1  0  0  0
  8 34  1  0  0  0  0
  9  8  1  0  0  0  0
 10  9  1  0  0  0  0
 10 11  2  0  0  0  0
 11  5  1  0  0  0  0
 12 50  1  0  0  0  0
 12 11  1  0  0  0  0
 13 12  2  0  0  0  0
 14 15  2  0  0  0  0
 14 13  1  0  0  0  0
 15 10  1  0  0  0  0
 16 14  1  0  0  0  0
 17 54  1  0  0  0  0
 17 16  2  0  0  0  0
 18 17  1  1  0  0  0
 19 20  2  0  0  0  0
 19 18  1  0  0  0  0
 21 19  2  0  0  0  0
 22 21  2  0  0  0  0
 22 23  1  0  0  0  0
 23 24  1  0  0  0  0
 24 25  2  0  0  0  0
 24 18  1  0  0  0  0
 26 27  1  0  0  0  0
 26 28  1  0  0  0  0
 26 23  1  0  0  0  0
 27 56  1  0  0  0  0
 28 60  1  0  0  0  0
 29 22  1  0  0  0  0
 30 31  2  0  0  0  0
 31 32  2  0  0  0  0
 32 36  1  0  0  0  0
 33 32  2  0  0  0  0
 34 33  2  0  0  0  0
 35 34  2  0  0  0  0
 37 64  1  0  0  0  0
 37 30  1  0  0  0  0
 42  3  1  0  0  0  0
 43  4  1  0  0  0  0
 46  7  1  0  0  0  0
 48  9  1  0  0  0  0
 49  9  1  0  0  0  0
 51 13  1  0  0  0  0
 52 15  1  0  0  0  0
 53 16  1  0  0  0  0
 55 26  1  0  0  0  0
 57 27  1  0  0  0  0
 58 27  1  0  0  0  0
 59 28  1  0  0  0  0
 61 28  1  0  0  0  0
 62 29  1  0  0  0  0
 63 36  1  0  0  0  0
M  RAD  1  18   2
M  END
