46519576.xyz
 OpenBabel07262113533D
Cc1ccc(cc1)N1C(=NC(=O)/C(=C/C=C/c2ccco2)/C1=O)S
 38 40  0  0  0  0  0  0  0  0999 V2000
    5.9304    0.0000   -1.0487 C   0  0  0  0  0  0  0  0  0  0  0  0
    4.7270    0.0003   -0.1416 C   0  0  0  0  0  0  0  0  0  0  0  0
    4.1446    1.2050    0.2821 C   0  0  0  0  0  0  0  0  0  0  0  0
    3.0122    1.2105    1.0943 C   0  0  0  0  0  0  0  0  0  0  0  0
    2.4409    0.0001    1.4923 C   0  0  0  0  0  0  0  0  0  0  0  0
    3.0119   -1.2103    1.0936 C   0  0  0  0  0  0  0  0  0  0  0  0
    4.1443   -1.2046    0.2815 C   0  0  0  0  0  0  0  0  0  0  0  0
    1.2693    0.0000    2.3286 N   0  0  0  0  0  0  0  0  0  0  0  0
   -0.0000   -0.0000    1.7725 C   0  0  0  0  0  0  0  0  0  0  0  0
   -1.1070   -0.0000    2.4404 N   0  0  0  0  0  0  0  0  0  0  0  0
   -1.1058    0.0001    3.8330 C   0  0  0  0  0  0  0  0  0  0  0  0
   -2.1525    0.0005    4.4567 O   0  0  0  0  0  0  0  0  0  0  0  0
    0.2234   -0.0003    4.5235 C   0  0  0  0  0  0  0  0  0  0  0  0
    0.2195   -0.0003    5.8953 C   0  0  0  0  0  0  0  0  0  0  0  0
    1.3287   -0.0009    6.7946 C   0  0  0  0  0  0  0  0  0  0  0  0
    1.1239   -0.0001    8.1444 C   0  0  0  0  0  0  0  0  0  0  0  0
    2.1499   -0.0005    9.1377 C   0  0  0  0  0  0  0  0  0  0  0  0
    2.0962    0.0005   10.5206 C   0  0  0  0  0  0  0  0  0  0  0  0
    3.4437   -0.0005   10.9823 C   0  0  0  0  0  0  0  0  0  0  0  0
    4.2254   -0.0021    9.8549 C   0  0  0  0  0  0  0  0  0  0  0  0
    3.4599   -0.0021    8.7443 O   0  0  0  0  0  0  0  0  0  0  0  0
    1.4649   -0.0006    3.7340 C   0  0  0  0  0  0  0  0  0  0  0  0
    2.5994   -0.0013    4.1733 O   0  0  0  0  0  0  0  0  0  0  0  0
    0.0000    0.0000    0.0000 S   0  0  0  0  0  0  0  0  0  0  0  0
    6.5605   -0.8867   -0.8830 H   0  0  0  0  0  0  0  0  0  0  0  0
    6.5499    0.8967   -0.8977 H   0  0  0  0  0  0  0  0  0  0  0  0
    5.6222   -0.0108   -2.1087 H   0  0  0  0  0  0  0  0  0  0  0  0
    4.5875    2.1551   -0.0275 H   0  0  0  0  0  0  0  0  0  0  0  0
    2.5625    2.1491    1.4227 H   0  0  0  0  0  0  0  0  0  0  0  0
    2.5619   -2.1489    1.4213 H   0  0  0  0  0  0  0  0  0  0  0  0
    4.5868   -2.1547   -0.0288 H   0  0  0  0  0  0  0  0  0  0  0  0
   -0.7849    0.0003    6.3346 H   0  0  0  0  0  0  0  0  0  0  0  0
    2.3393   -0.0019    6.3868 H   0  0  0  0  0  0  0  0  0  0  0  0
    0.1012    0.0010    8.5350 H   0  0  0  0  0  0  0  0  0  0  0  0
    1.1886    0.0018   11.1202 H   0  0  0  0  0  0  0  0  0  0  0  0
    3.7927   -0.0002   12.0122 H   0  0  0  0  0  0  0  0  0  0  0  0
    5.3008   -0.0033    9.6968 H   0  0  0  0  0  0  0  0  0  0  0  0
   -2.3078    0.0001   -0.2593 Au  0  0  0  0  0  0  0  0  0  0  0  0
  1 26  1  0  0  0  0
  1 25  1  0  0  0  0
  1  2  1  0  0  0  0
  2  7  2  0  0  0  0
  2  3  1  0  0  0  0
  3  4  2  0  0  0  0
  4 29  1  0  0  0  0
  4  5  1  0  0  0  0
  5  8  1  0  0  0  0
  6 30  1  0  0  0  0
  6  5  2  0  0  0  0
  7  6  1  0  0  0  0
  8 22  1  0  0  0  0
  9  8  1  0  0  0  0
  9 10  2  0  0  0  0
 10 11  2  0  0  0  0
 11 12  2  0  0  0  0
 11 13  1  0  0  0  0
 13 14  2  0  0  0  0
 14 32  1  0  0  0  0
 14 15  1  0  0  0  0
 15 16  2  0  0  0  0
 16 34  1  0  0  0  0
 16 17  1  0  0  0  0
 17 18  2  0  0  0  0
 18 19  1  0  0  0  0
 18 35  1  0  0  0  0
 19 36  1  0  0  0  0
 20 19  2  0  0  0  0
 21 17  1  0  0  0  0
 21 20  1  0  0  0  0
 22 23  2  0  0  0  0
 22 13  1  0  0  0  0
 24  9  1  0  0  0  0
 27  1  1  0  0  0  0
 28  3  1  0  0  0  0
 31  7  1  0  0  0  0
 33 15  1  0  0  0  0
 37 20  1  0  0  0  0
 38 24  1  0  0  0  0
M  END
