46511275.xyz
 OpenBabel07262113533D
SC1=NC(=O)/C(=C/c2cc(n(c2C)c2cc(C)cc(c2)C)C)/C(=N1)O
 44 46  0  0  0  0  0  0  0  0999 V2000
    0.0000    0.0000    0.0000 S   0  0  0  0  0  0  0  0  0  0  0  0
    0.0000   -0.0000    1.7715 C   0  0  0  0  0  0  0  0  0  0  0  0
    1.1888   -0.0000    2.2843 N   0  0  0  0  0  0  0  0  0  0  0  0
    1.3308    0.0004    3.6664 C   0  0  0  0  0  0  0  0  0  0  0  0
    2.4289    0.0001    4.1973 O   0  0  0  0  0  0  0  0  0  0  0  0
    0.0598    0.0017    4.4882 C   0  0  0  0  0  0  0  0  0  0  0  0
    0.2482    0.0034    5.8564 C   0  0  0  0  0  0  0  0  0  0  0  0
   -0.5561    0.0063    7.0280 C   0  0  0  0  0  0  0  0  0  0  0  0
   -1.9839    0.0096    7.2559 C   0  0  0  0  0  0  0  0  0  0  0  0
   -2.2027    0.0128    8.6061 C   0  0  0  0  0  0  0  0  0  0  0  0
   -0.9486    0.0120    9.2378 N   0  0  0  0  0  0  0  0  0  0  0  0
    0.0503    0.0077    8.3109 C   0  0  0  0  0  0  0  0  0  0  0  0
    1.4828    0.0056    8.7217 C   0  0  0  0  0  0  0  0  0  0  0  0
   -0.7554    0.0126   10.6549 C   0  0  0  0  0  0  0  0  0  0  0  0
   -0.6650   -1.2049   11.3381 C   0  0  0  0  0  0  0  0  0  0  0  0
   -0.4800   -1.2195   12.7242 C   0  0  0  0  0  0  0  0  0  0  0  0
   -0.3758   -2.5164   13.4853 C   0  0  0  0  0  0  0  0  0  0  0  0
   -0.3904    0.0098   13.3985 C   0  0  0  0  0  0  0  0  0  0  0  0
   -0.4794    1.2353   12.7299 C   0  0  0  0  0  0  0  0  0  0  0  0
   -0.6654    1.2235   11.3380 C   0  0  0  0  0  0  0  0  0  0  0  0
   -0.3757    2.5446   13.4698 C   0  0  0  0  0  0  0  0  0  0  0  0
   -3.4656    0.0167    9.3977 C   0  0  0  0  0  0  0  0  0  0  0  0
   -1.1628    0.0009    3.7285 C   0  0  0  0  0  0  0  0  0  0  0  0
   -1.2090   -0.0000    2.4234 N   0  0  0  0  0  0  0  0  0  0  0  0
   -2.3390    0.0005    4.3647 O   0  0  0  0  0  0  0  0  0  0  0  0
   -2.2371   -0.0006   -0.5373 Au  0  0  0  0  0  0  0  0  0  0  0  0
    1.3246    0.0028    6.0622 H   0  0  0  0  0  0  0  0  0  0  0  0
   -2.7472    0.0096    6.4895 H   0  0  0  0  0  0  0  0  0  0  0  0
    2.1472    0.0003    7.8499 H   0  0  0  0  0  0  0  0  0  0  0  0
    1.7223    0.8923    9.3310 H   0  0  0  0  0  0  0  0  0  0  0  0
    1.7177   -0.8771    9.3384 H   0  0  0  0  0  0  0  0  0  0  0  0
   -0.7409   -2.1376   10.7753 H   0  0  0  0  0  0  0  0  0  0  0  0
   -0.4907   -3.3858   12.8226 H   0  0  0  0  0  0  0  0  0  0  0  0
    0.6005   -2.6017   13.9901 H   0  0  0  0  0  0  0  0  0  0  0  0
   -1.1494   -2.5803   14.2679 H   0  0  0  0  0  0  0  0  0  0  0  0
   -0.2462    0.0083   14.4829 H   0  0  0  0  0  0  0  0  0  0  0  0
   -0.7410    2.1584   10.7779 H   0  0  0  0  0  0  0  0  0  0  0  0
   -1.2659    3.1708   13.2965 H   0  0  0  0  0  0  0  0  0  0  0  0
   -0.2748    2.3898   14.5534 H   0  0  0  0  0  0  0  0  0  0  0  0
    0.4972    3.1246   13.1278 H   0  0  0  0  0  0  0  0  0  0  0  0
   -3.5398    0.9042   10.0479 H   0  0  0  0  0  0  0  0  0  0  0  0
   -4.3281    0.0157    8.7177 H   0  0  0  0  0  0  0  0  0  0  0  0
   -3.5419   -0.8667   10.0532 H   0  0  0  0  0  0  0  0  0  0  0  0
   -3.0126   -0.0005    3.6618 H   0  0  0  0  0  0  0  0  0  0  0  0
  1  2  1  0  0  0  0
  2  3  2  0  0  0  0
  2 24  2  0  0  0  0
  3  4  2  0  0  0  0
  4  5  2  0  0  0  0
  4  6  1  0  0  0  0
  6  7  2  0  0  0  0
  7 27  1  0  0  0  0
  7  8  1  0  0  0  0
  8  9  1  0  0  0  0
  8 12  2  0  0  0  0
  9 10  2  0  0  0  0
 10 11  1  0  0  0  0
 10 22  1  0  0  0  0
 11 14  1  0  0  0  0
 12 13  1  0  0  0  0
 12 11  1  0  0  0  0
 13 30  1  0  0  0  0
 13 31  1  0  0  0  0
 14 20  2  0  0  0  0
 14 15  1  0  0  0  0
 15 16  2  0  0  0  0
 16 18  1  0  0  0  0
 16 17  1  0  0  0  0
 17 34  1  0  0  0  0
 17 35  1  0  0  0  0
 18 36  1  0  0  0  0
 19 18  2  0  0  0  0
 19 21  1  0  0  0  0
 20 19  1  0  0  0  0
 21 39  1  0  0  0  0
 22 41  1  0  0  0  0
 22 43  1  0  0  0  0
 23 25  1  0  0  0  0
 23  6  1  0  0  0  0
 24 23  2  0  0  0  0
 26  1  1  0  0  0  0
 28  9  1  0  0  0  0
 29 13  1  0  0  0  0
 32 15  1  0  0  0  0
 33 17  1  0  0  0  0
 37 20  1  0  0  0  0
 38 21  1  0  0  0  0
 40 21  1  0  0  0  0
 42 22  1  0  0  0  0
 44 25  1  0  0  0  0
M  END
