46511631.xyz
 OpenBabel07262113533D
Cc1ccc(cc1)N1C(=NC(=O)/C(=C/c2cc(n(c2C)C2CCCCC2)C)/C1=O)S
 57 60  0  0  0  0  0  0  0  0999 V2000
   -6.2588    1.1998    0.1340 C   0  0  0  0  0  0  0  0  0  0  0  0
   -4.9278    0.8938    0.7707 C   0  0  0  0  0  0  0  0  0  0  0  0
   -4.6503   -0.3908    1.2749 C   0  0  0  0  0  0  0  0  0  0  0  0
   -3.4288   -0.6782    1.8887 C   0  0  0  0  0  0  0  0  0  0  0  0
   -2.4518    0.3209    1.9930 C   0  0  0  0  0  0  0  0  0  0  0  0
   -2.7235    1.6073    1.5284 C   0  0  0  0  0  0  0  0  0  0  0  0
   -3.9477    1.8849    0.9165 C   0  0  0  0  0  0  0  0  0  0  0  0
   -1.1657    0.0228    2.5445 N   0  0  0  0  0  0  0  0  0  0  0  0
    0.0000   -0.0000    1.7835 C   0  0  0  0  0  0  0  0  0  0  0  0
    1.1866   -0.0000    2.2716 N   0  0  0  0  0  0  0  0  0  0  0  0
    1.4122    0.0214    3.6470 C   0  0  0  0  0  0  0  0  0  0  0  0
    2.5319    0.2000    4.0932 O   0  0  0  0  0  0  0  0  0  0  0  0
    0.2310   -0.2485    4.5287 C   0  0  0  0  0  0  0  0  0  0  0  0
    0.5314   -0.4754    5.8562 C   0  0  0  0  0  0  0  0  0  0  0  0
   -0.1943   -0.7710    7.0429 C   0  0  0  0  0  0  0  0  0  0  0  0
   -1.6000   -0.9312    7.3138 C   0  0  0  0  0  0  0  0  0  0  0  0
   -1.7520   -1.2222    8.6427 C   0  0  0  0  0  0  0  0  0  0  0  0
   -0.4719   -1.2539    9.2268 N   0  0  0  0  0  0  0  0  0  0  0  0
    0.4705   -0.9780    8.2786 C   0  0  0  0  0  0  0  0  0  0  0  0
    1.9288   -0.9139    8.5920 C   0  0  0  0  0  0  0  0  0  0  0  0
   -0.1625   -1.4420   10.6454 C   0  0  0  0  0  0  0  0  0  0  0  0
   -0.7173   -2.7358   11.2537 C   0  0  0  0  0  0  0  0  0  0  0  0
   -0.0493   -2.9920   12.6196 C   0  0  0  0  0  0  0  0  0  0  0  0
    0.2176   -1.6822   13.3993 C   0  0  0  0  0  0  0  0  0  0  0  0
   -0.7489   -0.5725   12.9748 C   0  0  0  0  0  0  0  0  0  0  0  0
   -0.5524   -0.2063   11.4923 C   0  0  0  0  0  0  0  0  0  0  0  0
   -3.0265   -1.4982    9.3735 C   0  0  0  0  0  0  0  0  0  0  0  0
   -1.1124   -0.2038    3.9574 C   0  0  0  0  0  0  0  0  0  0  0  0
   -2.1665   -0.3052    4.5602 O   0  0  0  0  0  0  0  0  0  0  0  0
    0.0000    0.0000    0.0000 S   0  0  0  0  0  0  0  0  0  0  0  0
   -6.1906    2.0561   -0.5528 H   0  0  0  0  0  0  0  0  0  0  0  0
   -6.6456    0.3364   -0.4285 H   0  0  0  0  0  0  0  0  0  0  0  0
   -7.0113    1.4515    0.9014 H   0  0  0  0  0  0  0  0  0  0  0  0
   -5.4064   -1.1763    1.1930 H   0  0  0  0  0  0  0  0  0  0  0  0
   -3.2224   -1.6721    2.2865 H   0  0  0  0  0  0  0  0  0  0  0  0
   -1.9575    2.3794    1.6147 H   0  0  0  0  0  0  0  0  0  0  0  0
   -4.1406    2.8919    0.5383 H   0  0  0  0  0  0  0  0  0  0  0  0
    1.6145   -0.4078    6.0006 H   0  0  0  0  0  0  0  0  0  0  0  0
   -2.3884   -0.8323    6.5778 H   0  0  0  0  0  0  0  0  0  0  0  0
    2.1549   -0.1429    9.3474 H   0  0  0  0  0  0  0  0  0  0  0  0
    2.3115   -1.8751    8.9746 H   0  0  0  0  0  0  0  0  0  0  0  0
    2.5063   -0.6679    7.6933 H   0  0  0  0  0  0  0  0  0  0  0  0
    0.9290   -1.5413   10.6870 H   0  0  0  0  0  0  0  0  0  0  0  0
   -0.5417   -3.5780   10.5670 H   0  0  0  0  0  0  0  0  0  0  0  0
   -1.8046   -2.6550   11.3840 H   0  0  0  0  0  0  0  0  0  0  0  0
    0.8994   -3.5344   12.4753 H   0  0  0  0  0  0  0  0  0  0  0  0
   -0.6968   -3.6593   13.2102 H   0  0  0  0  0  0  0  0  0  0  0  0
    0.1492   -1.8641   14.4830 H   0  0  0  0  0  0  0  0  0  0  0  0
    1.2503   -1.3379   13.2149 H   0  0  0  0  0  0  0  0  0  0  0  0
   -1.7849   -0.9142   13.1415 H   0  0  0  0  0  0  0  0  0  0  0  0
   -0.6185    0.3224   13.6030 H   0  0  0  0  0  0  0  0  0  0  0  0
    0.2383    0.5541   11.3848 H   0  0  0  0  0  0  0  0  0  0  0  0
   -1.4680    0.2479   11.0866 H   0  0  0  0  0  0  0  0  0  0  0  0
   -3.1382   -2.5618    9.6412 H   0  0  0  0  0  0  0  0  0  0  0  0
   -3.1303   -0.9139   10.3011 H   0  0  0  0  0  0  0  0  0  0  0  0
   -3.8672   -1.2339    8.7176 H   0  0  0  0  0  0  0  0  0  0  0  0
   -2.0098   -0.9119   -0.7010 Au  0  0  0  0  0  0  0  0  0  0  0  0
  1  2  1  0  0  0  0
  1 33  1  0  0  0  0
  2  7  2  0  0  0  0
  2  3  1  0  0  0  0
  3  4  2  0  0  0  0
  4  5  1  0  0  0  0
  4 35  1  0  0  0  0
  5  8  1  0  0  0  0
  6 36  1  0  0  0  0
  6  5  2  0  0  0  0
  7  6  1  0  0  0  0
  8 28  1  0  0  0  0
  9 10  2  0  0  0  0
  9  8  1  0  0  0  0
 10 11  2  0  0  0  0
 11 12  2  0  0  0  0
 11 13  1  0  0  0  0
 13 14  2  0  0  0  0
 14 38  1  0  0  0  0
 14 15  1  0  0  0  0
 15 16  1  0  0  0  0
 15 19  2  0  0  0  0
 16 17  2  0  0  0  0
 17 18  1  0  0  0  0
 17 27  1  0  0  0  0
 18 21  1  0  0  0  0
 19 20  1  0  0  0  0
 19 18  1  0  0  0  0
 20 41  1  0  0  0  0
 20 40  1  0  0  0  0
 21 43  1  0  0  0  0
 21 22  1  0  0  0  0
 21 26  1  0  0  0  0
 22 45  1  0  0  0  0
 22 23  1  0  0  0  0
 23 47  1  0  0  0  0
 23 24  1  0  0  0  0
 24 48  1  0  0  0  0
 25 50  1  0  0  0  0
 25 24  1  0  0  0  0
 25 51  1  0  0  0  0
 26 25  1  0  0  0  0
 27 54  1  0  0  0  0
 27 55  1  0  0  0  0
 28 13  1  0  0  0  0
 28 29  2  0  0  0  0
 30  9  1  0  0  0  0
 31  1  1  0  0  0  0
 32  1  1  0  0  0  0
 34  3  1  0  0  0  0
 37  7  1  0  0  0  0
 39 16  1  0  0  0  0
 42 20  1  0  0  0  0
 44 22  1  0  0  0  0
 46 23  1  0  0  0  0
 49 24  1  0  0  0  0
 52 26  1  0  0  0  0
 53 26  1  0  0  0  0
 56 27  1  0  0  0  0
 57 30  1  0  0  0  0
M  END
