46529747.xyz
 OpenBabel07262113543D
Clc1ccc(cc1)n1c(C)cc(c1C)/C=C\1/C(=O)N=C(N(C1=O)c1ccccc1)S
 48 51  0  0  0  0  0  0  0  0999 V2000
    1.6629    0.0281   15.0878 Cl  0  0  0  0  0  0  0  0  0  0  0  0
    1.6850    0.0198   13.3444 C   0  0  0  0  0  0  0  0  0  0  0  0
    1.4589    1.2099   12.6463 C   0  0  0  0  0  0  0  0  0  0  0  0
    1.4811    1.1988   11.2517 C   0  0  0  0  0  0  0  0  0  0  0  0
    1.7196    0.0064   10.5603 C   0  0  0  0  0  0  0  0  0  0  0  0
    1.9426   -1.1791   11.2688 C   0  0  0  0  0  0  0  0  0  0  0  0
    1.9291   -1.1767   12.6636 C   0  0  0  0  0  0  0  0  0  0  0  0
    1.7422   -0.0004    9.1353 N   0  0  0  0  0  0  0  0  0  0  0  0
    2.9127   -0.0125    8.3561 C   0  0  0  0  0  0  0  0  0  0  0  0
    4.2650   -0.0026    8.9842 C   0  0  0  0  0  0  0  0  0  0  0  0
    2.5327   -0.0112    7.0423 C   0  0  0  0  0  0  0  0  0  0  0  0
    1.0883   -0.0005    6.9897 C   0  0  0  0  0  0  0  0  0  0  0  0
    0.6369    0.0065    8.3314 C   0  0  0  0  0  0  0  0  0  0  0  0
   -0.7390    0.0054    8.9058 C   0  0  0  0  0  0  0  0  0  0  0  0
    0.1579    0.0010    5.9111 C   0  0  0  0  0  0  0  0  0  0  0  0
    0.2241   -0.0001    4.5347 C   0  0  0  0  0  0  0  0  0  0  0  0
   -1.1038    0.0001    3.8348 C   0  0  0  0  0  0  0  0  0  0  0  0
   -2.1587    0.0005    4.4478 O   0  0  0  0  0  0  0  0  0  0  0  0
   -1.1064    0.0000    2.4413 N   0  0  0  0  0  0  0  0  0  0  0  0
    0.0000   -0.0000    1.7744 C   0  0  0  0  0  0  0  0  0  0  0  0
    1.2633    0.0000    2.3360 N   0  0  0  0  0  0  0  0  0  0  0  0
    1.4569    0.0000    3.7467 C   0  0  0  0  0  0  0  0  0  0  0  0
    2.6001    0.0003    4.1656 O   0  0  0  0  0  0  0  0  0  0  0  0
    2.4400    0.0004    1.5074 C   0  0  0  0  0  0  0  0  0  0  0  0
    3.0076    1.2146    1.1128 C   0  0  0  0  0  0  0  0  0  0  0  0
    4.1432    1.2125    0.3022 C   0  0  0  0  0  0  0  0  0  0  0  0
    4.7100    0.0012   -0.1056 C   0  0  0  0  0  0  0  0  0  0  0  0
    4.1425   -1.2105    0.3000 C   0  0  0  0  0  0  0  0  0  0  0  0
    3.0069   -1.2134    1.1106 C   0  0  0  0  0  0  0  0  0  0  0  0
    0.0000    0.0000    0.0000 S   0  0  0  0  0  0  0  0  0  0  0  0
    1.2731    2.1338   13.1951 H   0  0  0  0  0  0  0  0  0  0  0  0
    1.3174    2.1199   10.6892 H   0  0  0  0  0  0  0  0  0  0  0  0
    2.1229   -2.1047   10.7192 H   0  0  0  0  0  0  0  0  0  0  0  0
    2.1014   -2.0952   13.2258 H   0  0  0  0  0  0  0  0  0  0  0  0
    4.4059    0.8708    9.6431 H   0  0  0  0  0  0  0  0  0  0  0  0
    5.0312    0.0342    8.1983 H   0  0  0  0  0  0  0  0  0  0  0  0
    4.4486   -0.9003    9.5980 H   0  0  0  0  0  0  0  0  0  0  0  0
    3.1825   -0.0124    6.1756 H   0  0  0  0  0  0  0  0  0  0  0  0
   -1.4939   -0.1091    8.1189 H   0  0  0  0  0  0  0  0  0  0  0  0
   -0.8680   -0.8180    9.6271 H   0  0  0  0  0  0  0  0  0  0  0  0
   -0.9555    0.9414    9.4471 H   0  0  0  0  0  0  0  0  0  0  0  0
   -0.8901    0.0044    6.2286 H   0  0  0  0  0  0  0  0  0  0  0  0
    2.5499    2.1494    1.4405 H   0  0  0  0  0  0  0  0  0  0  0  0
    4.5873    2.1597   -0.0119 H   0  0  0  0  0  0  0  0  0  0  0  0
    5.5987    0.0016   -0.7410 H   0  0  0  0  0  0  0  0  0  0  0  0
    4.5860   -2.1573   -0.0158 H   0  0  0  0  0  0  0  0  0  0  0  0
    2.5487   -2.1486    1.4366 H   0  0  0  0  0  0  0  0  0  0  0  0
   -2.3092    0.0006   -0.2489 Au  0  0  0  0  0  0  0  0  0  0  0  0
  2  1  1  0  0  0  0
  3 31  1  0  0  0  0
  3  2  2  0  0  0  0
  4  3  1  0  0  0  0
  5  4  2  0  0  0  0
  5  6  1  0  0  0  0
  6  7  2  0  0  0  0
  7 34  1  0  0  0  0
  7  2  1  0  0  0  0
  8  5  1  0  0  0  0
  9 10  1  0  0  0  0
  9  8  1  0  0  0  0
 10 37  1  0  0  0  0
 10 35  1  0  0  0  0
 11  9  2  0  0  0  0
 12 11  1  0  0  0  0
 12 13  2  0  0  0  0
 13 14  1  0  0  0  0
 13  8  1  0  0  0  0
 14 41  1  0  0  0  0
 14 40  1  0  0  0  0
 15 42  1  0  0  0  0
 15 12  1  0  0  0  0
 16 15  2  0  0  0  0
 17 18  2  0  0  0  0
 17 16  1  0  0  0  0
 19 17  2  0  0  0  0
 20 21  1  0  0  0  0
 20 19  2  0  0  0  0
 21 22  1  0  0  0  0
 22 23  2  0  0  0  0
 22 16  1  0  0  0  0
 24 21  1  0  0  0  0
 25 43  1  0  0  0  0
 25 24  1  0  0  0  0
 26 25  2  0  0  0  0
 27 28  2  0  0  0  0
 27 26  1  0  0  0  0
 28 29  1  0  0  0  0
 29 47  1  0  0  0  0
 29 24  2  0  0  0  0
 30 20  1  0  0  0  0
 32  4  1  0  0  0  0
 33  6  1  0  0  0  0
 36 10  1  0  0  0  0
 38 11  1  0  0  0  0
 39 14  1  0  0  0  0
 44 26  1  0  0  0  0
 45 27  1  0  0  0  0
 46 28  1  0  0  0  0
 48 30  1  0  0  0  0
M  END
