46538653.xyz
 OpenBabel07262113543D
COC(=O)c1ccc(cc1)c1ccc(o1)/C=C/1\SC(=NC1=O)S
 34 36  0  0  0  0  0  0  0  0999 V2000
    8.3903   -0.0138   13.8780 C   0  0  0  0  0  0  0  0  0  0  0  0
    7.8309   -0.0124   12.5670 O   0  0  0  0  0  0  0  0  0  0  0  0
    6.4850   -0.0073   12.4995 C   0  0  0  0  0  0  0  0  0  0  0  0
    5.7760   -0.0041   13.4796 O   0  0  0  0  0  0  0  0  0  0  0  0
    5.9859   -0.0064   11.0965 C   0  0  0  0  0  0  0  0  0  0  0  0
    6.8499   -0.0099    9.9893 C   0  0  0  0  0  0  0  0  0  0  0  0
    6.3336   -0.0088    8.6992 C   0  0  0  0  0  0  0  0  0  0  0  0
    4.9406   -0.0043    8.4825 C   0  0  0  0  0  0  0  0  0  0  0  0
    4.0792   -0.0009    9.5984 C   0  0  0  0  0  0  0  0  0  0  0  0
    4.5986   -0.0019   10.8873 C   0  0  0  0  0  0  0  0  0  0  0  0
    4.4045   -0.0032    7.1321 C   0  0  0  0  0  0  0  0  0  0  0  0
    4.9964   -0.0027    5.8806 C   0  0  0  0  0  0  0  0  0  0  0  0
    3.9455   -0.0014    4.9310 C   0  0  0  0  0  0  0  0  0  0  0  0
    2.7586   -0.0012    5.6491 C   0  0  0  0  0  0  0  0  0  0  0  0
    3.0559   -0.0022    6.9851 O   0  0  0  0  0  0  0  0  0  0  0  0
    1.3736   -0.0006    5.3064 C   0  0  0  0  0  0  0  0  0  0  0  0
    0.8140   -0.0001    4.0716 C   0  0  0  0  0  0  0  0  0  0  0  0
    1.6252    0.0000    2.5124 S   0  0  0  0  0  0  0  0  0  0  0  0
   -0.0000    0.0000    1.7372 C   0  0  0  0  0  0  0  0  0  0  0  0
   -1.0259   -0.0001    2.5130 N   0  0  0  0  0  0  0  0  0  0  0  0
   -0.6822   -0.0000    3.8793 C   0  0  0  0  0  0  0  0  0  0  0  0
   -1.4794    0.0001    4.7880 O   0  0  0  0  0  0  0  0  0  0  0  0
    0.0000    0.0000    0.0000 S   0  0  0  0  0  0  0  0  0  0  0  0
    8.0683   -0.9041   14.4392 H   0  0  0  0  0  0  0  0  0  0  0  0
    9.4792   -0.0181   13.7468 H   0  0  0  0  0  0  0  0  0  0  0  0
    8.0753    0.8796   14.4382 H   0  0  0  0  0  0  0  0  0  0  0  0
    7.9276   -0.0135   10.1524 H   0  0  0  0  0  0  0  0  0  0  0  0
    7.0166   -0.0118    7.8479 H   0  0  0  0  0  0  0  0  0  0  0  0
    3.0005    0.0026    9.4392 H   0  0  0  0  0  0  0  0  0  0  0  0
    3.9416    0.0008   11.7585 H   0  0  0  0  0  0  0  0  0  0  0  0
    6.0630   -0.0030    5.6724 H   0  0  0  0  0  0  0  0  0  0  0  0
    4.0439   -0.0005    3.8488 H   0  0  0  0  0  0  0  0  0  0  0  0
    0.6617   -0.0007    6.1378 H   0  0  0  0  0  0  0  0  0  0  0  0
   -2.2989   -0.0025   -0.3086 Au  0  0  0  0  0  0  0  0  0  0  0  0
  1 26  1  0  0  0  0
  1 24  1  0  0  0  0
  2  1  1  0  0  0  0
  3  2  1  0  0  0  0
  3  4  2  0  0  0  0
  5  3  1  0  0  0  0
  6 27  1  0  0  0  0
  6  5  2  0  0  0  0
  7  6  1  0  0  0  0
  8  7  2  0  0  0  0
  8  9  1  0  0  0  0
  9 10  2  0  0  0  0
 10  5  1  0  0  0  0
 10 30  1  0  0  0  0
 11  8  1  0  0  0  0
 12 11  2  0  0  0  0
 13 14  2  0  0  0  0
 13 12  1  0  0  0  0
 14 15  1  0  0  0  0
 15 11  1  0  0  0  0
 16 14  1  0  0  0  0
 16 33  1  0  0  0  0
 17 16  2  0  0  0  0
 18 17  1  0  0  0  0
 19 18  1  0  0  0  0
 19 20  2  0  0  0  0
 20 21  2  0  0  0  0
 21 17  1  0  0  0  0
 21 22  2  0  0  0  0
 23 19  1  0  0  0  0
 25  1  1  0  0  0  0
 28  7  1  0  0  0  0
 29  9  1  0  0  0  0
 31 12  1  0  0  0  0
 32 13  1  0  0  0  0
 34 23  1  0  0  0  0
M  END
