46530302.xyz
 OpenBabel07262113543D
COc1ccc2c(c1)cc(c(n2)N1CCOCC1)/C=C\1/C(=O)N=C(N1C(=O)C)S
 49 52  0  0  1  0  0  0  0  0999 V2000
    8.2293    5.3787    3.9048 C   0  0  0  0  0  0  0  0  0  0  0  0
    7.0069    4.7772    3.5490 O   0  0  0  0  0  0  0  0  0  0  0  0
    6.4938    3.7945    4.3351 C   0  0  0  0  0  0  0  0  0  0  0  0
    7.1277    3.3193    5.5152 C   0  0  0  0  0  0  0  0  0  0  0  0
    6.5492    2.3134    6.2660 C   0  0  0  0  0  0  0  0  0  0  0  0
    5.3191    1.7248    5.8825 C   0  0  0  0  0  0  0  0  0  0  0  0
    4.6792    2.2162    4.6980 C   0  0  2  0  0  0  0  0  0  0  0  0
    5.2821    3.2462    3.9414 C   0  0  0  0  0  0  0  0  0  0  0  0
    3.4172    1.6529    4.3798 C   0  0  0  0  0  0  0  0  0  0  0  0
    2.8639    0.6622    5.1649 C   0  0  0  0  0  0  0  0  0  0  0  0
    3.6536    0.1607    6.2733 C   0  0  0  0  0  0  0  0  0  0  0  0
    4.8022    0.7057    6.6158 N   0  0  0  0  0  0  0  0  0  0  0  0
    3.1625   -0.9020    7.0217 N   0  0  0  0  0  0  0  0  0  0  0  0
    2.7141   -2.1250    6.3411 C   0  0  0  0  0  0  0  0  0  0  0  0
    3.8676   -3.1221    6.2274 C   0  0  0  0  0  0  0  0  0  0  0  0
    4.4448   -3.4061    7.4843 O   0  0  0  0  0  0  0  0  0  0  0  0
    4.9334   -2.2336    8.1105 C   0  0  0  0  0  0  0  0  0  0  0  0
    3.8161   -1.2085    8.2940 C   0  0  0  0  0  0  0  0  0  0  0  0
    1.4721    0.2606    4.9994 C   0  0  0  0  0  0  0  0  0  0  0  0
    0.7662    0.0462    3.8719 C   0  0  0  0  0  0  0  0  0  0  0  0
   -0.7281   -0.0246    3.8227 C   0  0  0  0  0  0  0  0  0  0  0  0
   -1.4887   -0.0484    4.7612 O   0  0  0  0  0  0  0  0  0  0  0  0
   -1.0908   -0.0017    2.4589 N   0  0  0  0  0  0  0  0  0  0  0  0
    0.0000   -0.0000    1.7495 C   0  0  0  0  0  0  0  0  0  0  0  0
    1.1931   -0.0000    2.5131 N   0  0  0  0  0  0  0  0  0  0  0  0
    2.4647   -0.5263    2.1393 C   0  0  0  0  0  0  0  0  0  0  0  0
    3.1349   -1.1060    2.9601 O   0  0  0  0  0  0  0  0  0  0  0  0
    2.9505   -0.2756    0.7341 C   0  0  0  0  0  0  0  0  0  0  0  0
    0.0000    0.0000    0.0000 S   0  0  0  0  0  0  0  0  0  0  0  0
    9.0592    4.6492    3.9245 H   0  0  0  0  0  0  0  0  0  0  0  0
    8.1736    5.8781    4.8891 H   0  0  0  0  0  0  0  0  0  0  0  0
    8.4411    6.1344    3.1367 H   0  0  0  0  0  0  0  0  0  0  0  0
    8.0781    3.7433    5.8388 H   0  0  0  0  0  0  0  0  0  0  0  0
    7.0326    1.9392    7.1702 H   0  0  0  0  0  0  0  0  0  0  0  0
    4.7991    3.6276    3.0394 H   0  0  0  0  0  0  0  0  0  0  0  0
    2.8456    2.0631    3.5432 H   0  0  0  0  0  0  0  0  0  0  0  0
    1.8891   -2.5701    6.9228 H   0  0  0  0  0  0  0  0  0  0  0  0
    2.3454   -1.8922    5.3361 H   0  0  0  0  0  0  0  0  0  0  0  0
    4.6284   -2.7101    5.5324 H   0  0  0  0  0  0  0  0  0  0  0  0
    3.5059   -4.0760    5.8132 H   0  0  0  0  0  0  0  0  0  0  0  0
    5.3460   -2.5384    9.0846 H   0  0  0  0  0  0  0  0  0  0  0  0
    5.7441   -1.7795    7.5089 H   0  0  0  0  0  0  0  0  0  0  0  0
    4.2117   -0.2819    8.7262 H   0  0  0  0  0  0  0  0  0  0  0  0
    3.0497   -1.6276    8.9687 H   0  0  0  0  0  0  0  0  0  0  0  0
    0.8762    0.1659    5.9148 H   0  0  0  0  0  0  0  0  0  0  0  0
    2.5474   -1.0343    0.0460 H   0  0  0  0  0  0  0  0  0  0  0  0
    4.0438   -0.3705    0.7512 H   0  0  0  0  0  0  0  0  0  0  0  0
    2.6573    0.7144    0.3601 H   0  0  0  0  0  0  0  0  0  0  0  0
   -2.3181   -0.0512   -0.2147 Au  0  0  0  0  0  0  0  0  0  0  0  0
  1 30  1  0  0  0  0
  1 31  1  0  0  0  0
  2  1  1  0  0  0  0
  2  3  1  0  0  0  0
  3  4  1  0  0  0  0
  4 33  1  0  0  0  0
  4  5  2  0  0  0  0
  5 34  1  0  0  0  0
  6  5  1  0  0  0  0
  6 12  2  0  0  0  0
  7  8  1  1  0  0  0
  7  6  1  0  0  0  0
  8  3  2  0  0  0  0
  9  7  1  0  0  0  0
  9 10  2  0  0  0  0
 10 11  1  0  0  0  0
 11 12  2  0  0  0  0
 11 13  1  0  0  0  0
 13 18  1  0  0  0  0
 14 37  1  0  0  0  0
 14 13  1  0  0  0  0
 15 14  1  0  0  0  0
 15 16  1  0  0  0  0
 16 17  1  0  0  0  0
 17 18  1  0  0  0  0
 17 41  1  0  0  0  0
 18 43  1  0  0  0  0
 18 44  1  0  0  0  0
 19 10  1  0  0  0  0
 19 45  1  0  0  0  0
 20 19  2  0  0  0  0
 21 20  1  0  0  0  0
 21 22  2  0  0  0  0
 23 21  2  0  0  0  0
 24 23  2  0  0  0  0
 24 25  1  0  0  0  0
 25 20  1  0  0  0  0
 26 25  1  0  0  0  0
 26 27  2  0  0  0  0
 28 47  1  0  0  0  0
 28 26  1  0  0  0  0
 29 24  1  0  0  0  0
 32  1  1  0  0  0  0
 35  8  1  0  0  0  0
 36  9  1  0  0  0  0
 38 14  1  0  0  0  0
 39 15  1  0  0  0  0
 40 15  1  0  0  0  0
 42 17  1  0  0  0  0
 46 28  1  0  0  0  0
 48 28  1  0  0  0  0
 49 29  1  0  0  0  0
M  RAD  1   7   2
M  END
