46545299.xyz
 OpenBabel07262113553D
Fc1ccc(cc1)n1c(C)cc(c1C)/C=C\1/C(=O)N=C(N(C1=O)c1cccc2c1cccc2)S
 54 58  0  0  0  0  0  0  0  0999 V2000
   -1.7188    0.1579   14.6615 F   0  0  0  0  0  0  0  0  0  0  0  0
   -1.7298    0.1423   13.3244 C   0  0  0  0  0  0  0  0  0  0  0  0
   -1.6970   -1.0827   12.6606 C   0  0  0  0  0  0  0  0  0  0  0  0
   -1.7097   -1.0935   11.2655 C   0  0  0  0  0  0  0  0  0  0  0  0
   -1.7520    0.1101   10.5530 C   0  0  0  0  0  0  0  0  0  0  0  0
   -1.7849    1.3299   11.2379 C   0  0  0  0  0  0  0  0  0  0  0  0
   -1.7741    1.3516   12.6329 C   0  0  0  0  0  0  0  0  0  0  0  0
   -1.7691    0.0935    9.1270 N   0  0  0  0  0  0  0  0  0  0  0  0
   -2.9364    0.0961    8.3436 C   0  0  0  0  0  0  0  0  0  0  0  0
   -4.2890    0.1150    8.9703 C   0  0  0  0  0  0  0  0  0  0  0  0
   -2.5521    0.0747    7.0312 C   0  0  0  0  0  0  0  0  0  0  0  0
   -1.1072    0.0591    6.9843 C   0  0  0  0  0  0  0  0  0  0  0  0
   -0.6613    0.0717    8.3283 C   0  0  0  0  0  0  0  0  0  0  0  0
    0.7106    0.0671    8.9115 C   0  0  0  0  0  0  0  0  0  0  0  0
   -0.1727    0.0391    5.9101 C   0  0  0  0  0  0  0  0  0  0  0  0
   -0.2341    0.0218    4.5333 C   0  0  0  0  0  0  0  0  0  0  0  0
    1.0961    0.0105    3.8376 C   0  0  0  0  0  0  0  0  0  0  0  0
    2.1488    0.0129    4.4544 O   0  0  0  0  0  0  0  0  0  0  0  0
    1.1040    0.0000    2.4439 N   0  0  0  0  0  0  0  0  0  0  0  0
   -0.0000    0.0000    1.7734 C   0  0  0  0  0  0  0  0  0  0  0  0
   -1.2653    0.0047    2.3315 N   0  0  0  0  0  0  0  0  0  0  0  0
   -1.4640    0.0138    3.7419 C   0  0  0  0  0  0  0  0  0  0  0  0
   -2.6089    0.0205    4.1552 O   0  0  0  0  0  0  0  0  0  0  0  0
   -2.4368    0.0463    1.4986 C   0  0  0  0  0  0  0  0  0  0  0  0
   -2.9924   -1.1311    1.0450 C   0  0  0  0  0  0  0  0  0  0  0  0
   -4.1396   -1.1049    0.2196 C   0  0  0  0  0  0  0  0  0  0  0  0
   -4.7142    0.0985   -0.1284 C   0  0  0  0  0  0  0  0  0  0  0  0
   -4.1713    1.3291    0.3323 C   0  0  0  0  0  0  0  0  0  0  0  0
   -3.0071    1.3115    1.1681 C   0  0  0  0  0  0  0  0  0  0  0  0
   -2.4653    2.5419    1.6245 C   0  0  0  0  0  0  0  0  0  0  0  0
   -3.0506    3.7391    1.2723 C   0  0  0  0  0  0  0  0  0  0  0  0
   -4.2024    3.7616    0.4469 C   0  0  0  0  0  0  0  0  0  0  0  0
   -4.7483    2.5826   -0.0120 C   0  0  0  0  0  0  0  0  0  0  0  0
    0.0000    0.0000    0.0000 S   0  0  0  0  0  0  0  0  0  0  0  0
   -1.6638   -2.0064   13.2405 H   0  0  0  0  0  0  0  0  0  0  0  0
   -1.6881   -2.0375   10.7180 H   0  0  0  0  0  0  0  0  0  0  0  0
   -1.8188    2.2607   10.6689 H   0  0  0  0  0  0  0  0  0  0  0  0
   -1.7989    2.2885   13.1916 H   0  0  0  0  0  0  0  0  0  0  0  0
   -4.4454    1.0127    9.5919 H   0  0  0  0  0  0  0  0  0  0  0  0
   -4.4544   -0.7591    9.6224 H   0  0  0  0  0  0  0  0  0  0  0  0
   -5.0561    0.1057    8.1845 H   0  0  0  0  0  0  0  0  0  0  0  0
   -3.1985    0.0693    6.1620 H   0  0  0  0  0  0  0  0  0  0  0  0
    0.8774   -0.8231    9.5403 H   0  0  0  0  0  0  0  0  0  0  0  0
    0.8751    0.9470    9.5549 H   0  0  0  0  0  0  0  0  0  0  0  0
    1.4742    0.0736    8.1248 H   0  0  0  0  0  0  0  0  0  0  0  0
    0.8741    0.0382    6.2316 H   0  0  0  0  0  0  0  0  0  0  0  0
   -2.5308   -2.0788    1.3263 H   0  0  0  0  0  0  0  0  0  0  0  0
   -4.5658   -2.0445   -0.1380 H   0  0  0  0  0  0  0  0  0  0  0  0
   -5.6013    0.1237   -0.7662 H   0  0  0  0  0  0  0  0  0  0  0  0
   -1.5771    2.5301    2.2575 H   0  0  0  0  0  0  0  0  0  0  0  0
   -2.6240    4.6789    1.6305 H   0  0  0  0  0  0  0  0  0  0  0  0
   -4.6550    4.7181    0.1753 H   0  0  0  0  0  0  0  0  0  0  0  0
   -5.6358    2.5929   -0.6499 H   0  0  0  0  0  0  0  0  0  0  0  0
    2.3068    0.0707   -0.2552 Au  0  0  0  0  0  0  0  0  0  0  0  0
  2  1  1  0  0  0  0
  3 35  1  0  0  0  0
  3  2  1  0  0  0  0
  4  3  2  0  0  0  0
  5  6  2  0  0  0  0
  5  4  1  0  0  0  0
  6  7  1  0  0  0  0
  7 38  1  0  0  0  0
  7  2  2  0  0  0  0
  8  5  1  0  0  0  0
  9 10  1  0  0  0  0
  9  8  1  0  0  0  0
 10 39  1  0  0  0  0
 10 40  1  0  0  0  0
 11  9  2  0  0  0  0
 12 11  1  0  0  0  0
 12 13  2  0  0  0  0
 13 14  1  0  0  0  0
 13  8  1  0  0  0  0
 14 43  1  0  0  0  0
 14 44  1  0  0  0  0
 15 46  1  0  0  0  0
 15 12  1  0  0  0  0
 16 15  2  0  0  0  0
 17 18  2  0  0  0  0
 17 16  1  0  0  0  0
 19 17  2  0  0  0  0
 20 21  1  0  0  0  0
 20 19  2  0  0  0  0
 21 22  1  0  0  0  0
 22 23  2  0  0  0  0
 22 16  1  0  0  0  0
 24 21  1  0  0  0  0
 25 47  1  0  0  0  0
 25 24  2  0  0  0  0
 26 25  1  0  0  0  0
 27 26  2  0  0  0  0
 27 28  1  0  0  0  0
 28 29  1  0  0  0  0
 29 24  1  0  0  0  0
 29 30  2  0  0  0  0
 30 50  1  0  0  0  0
 31 30  1  0  0  0  0
 31 51  1  0  0  0  0
 32 31  2  0  0  0  0
 33 28  2  0  0  0  0
 33 32  1  0  0  0  0
 34 20  1  0  0  0  0
 36  4  1  0  0  0  0
 37  6  1  0  0  0  0
 41 10  1  0  0  0  0
 42 11  1  0  0  0  0
 45 14  1  0  0  0  0
 48 26  1  0  0  0  0
 49 27  1  0  0  0  0
 52 32  1  0  0  0  0
 53 33  1  0  0  0  0
 54 34  1  0  0  0  0
M  END
