46543666.xyz
 OpenBabel07262113553D
Cc1ccc(cc1)n1c(C)cc(c1C)/C=C\1/C(=O)N=C(N(C1=O)C)S
 44 46  0  0  1  0  0  0  0  0999 V2000
   -7.3903    4.1945    9.7624 C   0  0  0  0  0  0  0  0  0  0  0  0
   -6.1560    3.4412    9.3376 C   0  0  0  0  0  0  0  0  0  0  0  0
   -4.9076    3.7000    9.9218 C   0  0  0  0  0  0  0  0  0  0  0  0
   -3.7682    2.9905    9.5383 C   0  0  0  0  0  0  0  0  0  0  0  0
   -3.8638    1.9933    8.5638 C   0  0  0  0  0  0  0  0  0  0  0  0
   -5.1012    1.7208    7.9693 C   0  0  0  0  0  0  0  0  0  0  0  0
   -6.2297    2.4437    8.3514 C   0  0  0  0  0  0  0  0  0  0  0  0
   -2.7101    1.2590    8.1651 N   0  0  0  0  0  0  0  0  0  0  0  0
   -1.9979    0.3780    8.9930 C   0  0  0  0  0  0  0  0  0  0  0  0
   -2.4386    0.0668   10.3837 C   0  0  0  0  0  0  0  0  0  0  0  0
   -0.9526   -0.1087    8.2546 C   0  0  0  0  0  0  0  0  0  0  0  0
   -1.0423    0.4362    6.9205 C   0  0  0  0  0  0  0  0  0  0  0  0
   -2.1476    1.3086    6.9141 C   0  0  0  0  0  0  0  0  0  0  0  0
   -2.5938    2.2934    5.8939 C   0  0  0  0  0  0  0  0  0  0  0  0
   -0.0793    0.1781    5.9005 C   0  0  0  0  0  0  0  0  0  0  0  0
   -0.1451    0.1565    4.5249 C   0  0  1  0  0  0  0  0  0  0  0  0
    1.1612    0.0110    3.8078 C   0  0  0  0  0  0  0  0  0  0  0  0
    2.2236   -0.0684    4.4005 O   0  0  0  0  0  0  0  0  0  0  0  0
    1.1262    0.0000    2.4165 N   0  0  0  0  0  0  0  0  0  0  0  0
    0.0000    0.0000    1.7752 C   0  0  0  0  0  0  0  0  0  0  0  0
   -1.2508   -0.0034    2.3567 N   0  0  0  0  0  0  0  0  0  0  0  0
   -1.3989    0.0788    3.7699 C   0  0  0  0  0  0  0  0  0  0  0  0
   -2.5198    0.0296    4.2507 O   0  0  0  0  0  0  0  0  0  0  0  0
   -2.4654   -0.1010    1.5503 C   0  0  0  0  0  0  0  0  0  0  0  0
    0.0000    0.0000    0.0000 S   0  0  0  0  0  0  0  0  0  0  0  0
   -7.9866    4.5106    8.8921 H   0  0  0  0  0  0  0  0  0  0  0  0
   -7.1363    5.0903   10.3473 H   0  0  0  0  0  0  0  0  0  0  0  0
   -8.0424    3.5617   10.3885 H   0  0  0  0  0  0  0  0  0  0  0  0
   -4.8217    4.4792   10.6834 H   0  0  0  0  0  0  0  0  0  0  0  0
   -2.7970    3.2162    9.9823 H   0  0  0  0  0  0  0  0  0  0  0  0
   -5.1670    0.9397    7.2095 H   0  0  0  0  0  0  0  0  0  0  0  0
   -7.1907    2.2254    7.8781 H   0  0  0  0  0  0  0  0  0  0  0  0
   -2.3752    0.9386   11.0552 H   0  0  0  0  0  0  0  0  0  0  0  0
   -3.4843   -0.2826   10.4101 H   0  0  0  0  0  0  0  0  0  0  0  0
   -1.8021   -0.7261   10.7997 H   0  0  0  0  0  0  0  0  0  0  0  0
   -0.2158   -0.8333    8.5955 H   0  0  0  0  0  0  0  0  0  0  0  0
   -2.9539    3.2181    6.3692 H   0  0  0  0  0  0  0  0  0  0  0  0
   -3.3929    1.8819    5.2587 H   0  0  0  0  0  0  0  0  0  0  0  0
   -1.7569    2.5378    5.2251 H   0  0  0  0  0  0  0  0  0  0  0  0
    0.9274   -0.0592    6.2664 H   0  0  0  0  0  0  0  0  0  0  0  0
   -2.5641    0.7738    0.8899 H   0  0  0  0  0  0  0  0  0  0  0  0
   -2.4463   -1.0122    0.9350 H   0  0  0  0  0  0  0  0  0  0  0  0
   -3.3122   -0.1396    2.2435 H   0  0  0  0  0  0  0  0  0  0  0  0
    2.3185   -0.0067   -0.2082 Au  0  0  0  0  0  0  0  0  0  0  0  0
  1 27  1  0  0  0  0
  1 28  1  0  0  0  0
  2  1  1  0  0  0  0
  2  3  2  0  0  0  0
  3 29  1  0  0  0  0
  4  3  1  0  0  0  0
  4 30  1  0  0  0  0
  5  4  2  0  0  0  0
  6  7  2  0  0  0  0
  6  5  1  0  0  0  0
  7  2  1  0  0  0  0
  8  5  1  0  0  0  0
  8  9  1  0  0  0  0
  9 10  1  0  0  0  0
 10 34  1  0  0  0  0
 10 35  1  0  0  0  0
 10 33  1  0  0  0  0
 11 36  1  0  0  0  0
 11  9  2  0  0  0  0
 12 11  1  0  0  0  0
 13 12  2  0  0  0  0
 13  8  1  0  0  0  0
 14 37  1  0  0  0  0
 14 13  1  0  0  0  0
 15 40  1  0  0  0  0
 15 12  1  0  0  0  0
 16 15  1  1  0  0  0
 17 18  2  0  0  0  0
 17 16  1  0  0  0  0
 19 17  2  0  0  0  0
 20 21  1  0  0  0  0
 20 19  2  0  0  0  0
 21 22  1  0  0  0  0
 22 23  2  0  0  0  0
 22 16  1  0  0  0  0
 24 43  1  0  0  0  0
 24 21  1  0  0  0  0
 25 20  1  0  0  0  0
 26  1  1  0  0  0  0
 31  6  1  0  0  0  0
 32  7  1  0  0  0  0
 38 14  1  0  0  0  0
 39 14  1  0  0  0  0
 41 24  1  0  0  0  0
 42 24  1  0  0  0  0
 44 25  1  0  0  0  0
M  RAD  2  15   2  16   2
M  END
