46544175.xyz
 OpenBabel07262113553D
CCN1C(=NC(=O)/C(=C/c2cc(n(c2C)c2ccc(cc2)C)C)/C1=O)S
 47 49  0  0  0  0  0  0  0  0999 V2000
    2.9769   -1.4174    1.2859 C   0  0  0  0  0  0  0  0  0  0  0  0
    2.4927   -0.0084    1.6098 C   0  0  0  0  0  0  0  0  0  0  0  0
    1.2392   -0.0000    2.3798 N   0  0  0  0  0  0  0  0  0  0  0  0
   -0.0000   -0.0000    1.7787 C   0  0  0  0  0  0  0  0  0  0  0  0
   -1.1338   -0.0052    2.4075 N   0  0  0  0  0  0  0  0  0  0  0  0
   -1.1895   -0.0170    3.7977 C   0  0  0  0  0  0  0  0  0  0  0  0
   -2.2692    0.0061    4.3676 O   0  0  0  0  0  0  0  0  0  0  0  0
    0.1089   -0.0693    4.5414 C   0  0  0  0  0  0  0  0  0  0  0  0
   -0.0055   -0.1096    5.9154 C   0  0  0  0  0  0  0  0  0  0  0  0
    0.8810   -0.1658    7.0270 C   0  0  0  0  0  0  0  0  0  0  0  0
    2.3218   -0.2112    7.1381 C   0  0  0  0  0  0  0  0  0  0  0  0
    2.6460   -0.2587    8.4661 C   0  0  0  0  0  0  0  0  0  0  0  0
    1.4456   -0.2437    9.1968 N   0  0  0  0  0  0  0  0  0  0  0  0
    0.3762   -0.1886    8.3510 C   0  0  0  0  0  0  0  0  0  0  0  0
   -1.0201   -0.1688    8.8728 C   0  0  0  0  0  0  0  0  0  0  0  0
    1.3642   -0.2789   10.6216 C   0  0  0  0  0  0  0  0  0  0  0  0
    1.4099   -1.5020   11.2961 C   0  0  0  0  0  0  0  0  0  0  0  0
    1.3384   -1.5303   12.6896 C   0  0  0  0  0  0  0  0  0  0  0  0
    1.2165   -0.3476   13.4347 C   0  0  0  0  0  0  0  0  0  0  0  0
    1.1756    0.8713   12.7393 C   0  0  0  0  0  0  0  0  0  0  0  0
    1.2495    0.9108   11.3470 C   0  0  0  0  0  0  0  0  0  0  0  0
    1.1054   -0.3832   14.9373 C   0  0  0  0  0  0  0  0  0  0  0  0
    3.9686   -0.3087    9.1523 C   0  0  0  0  0  0  0  0  0  0  0  0
    1.3648   -0.0723    3.7939 C   0  0  0  0  0  0  0  0  0  0  0  0
    2.4895   -0.1278    4.2676 O   0  0  0  0  0  0  0  0  0  0  0  0
    0.0000    0.0000    0.0000 S   0  0  0  0  0  0  0  0  0  0  0  0
    3.1720   -1.9755    2.2133 H   0  0  0  0  0  0  0  0  0  0  0  0
    3.9137   -1.3706    0.7088 H   0  0  0  0  0  0  0  0  0  0  0  0
    2.2326   -1.9638    0.6871 H   0  0  0  0  0  0  0  0  0  0  0  0
    3.2352    0.5149    2.2242 H   0  0  0  0  0  0  0  0  0  0  0  0
    2.3270    0.5794    0.6962 H   0  0  0  0  0  0  0  0  0  0  0  0
   -1.0643   -0.0895    6.1941 H   0  0  0  0  0  0  0  0  0  0  0  0
    3.0065   -0.2053    6.2991 H   0  0  0  0  0  0  0  0  0  0  0  0
   -1.7486   -0.1778    8.0535 H   0  0  0  0  0  0  0  0  0  0  0  0
   -1.2165   -1.0417    9.5166 H   0  0  0  0  0  0  0  0  0  0  0  0
   -1.2082    0.7278    9.4862 H   0  0  0  0  0  0  0  0  0  0  0  0
    1.5032   -2.4256   10.7215 H   0  0  0  0  0  0  0  0  0  0  0  0
    1.3781   -2.4913   13.2088 H   0  0  0  0  0  0  0  0  0  0  0  0
    1.0886    1.8067   13.2982 H   0  0  0  0  0  0  0  0  0  0  0  0
    1.2244    1.8620   10.8116 H   0  0  0  0  0  0  0  0  0  0  0  0
    1.5967    0.4870   15.3984 H   0  0  0  0  0  0  0  0  0  0  0  0
    1.5572   -1.2952   15.3545 H   0  0  0  0  0  0  0  0  0  0  0  0
    0.0479   -0.3655   15.2528 H   0  0  0  0  0  0  0  0  0  0  0  0
    4.1120    0.5482    9.8318 H   0  0  0  0  0  0  0  0  0  0  0  0
    4.0867   -1.2215    9.7600 H   0  0  0  0  0  0  0  0  0  0  0  0
    4.7709   -0.2905    8.4026 H   0  0  0  0  0  0  0  0  0  0  0  0
   -2.3210    0.0310   -0.1964 Au  0  0  0  0  0  0  0  0  0  0  0  0
  1  2  1  0  0  0  0
  1 27  1  0  0  0  0
  2 30  1  0  0  0  0
  2  3  1  0  0  0  0
  3 24  1  0  0  0  0
  4  3  1  0  0  0  0
  4  5  2  0  0  0  0
  5  6  2  0  0  0  0
  6  7  2  0  0  0  0
  6  8  1  0  0  0  0
  8  9  2  0  0  0  0
  9 32  1  0  0  0  0
  9 10  1  0  0  0  0
 10 11  1  0  0  0  0
 10 14  2  0  0  0  0
 11 12  2  0  0  0  0
 12 23  1  0  0  0  0
 12 13  1  0  0  0  0
 13 16  1  0  0  0  0
 14 15  1  0  0  0  0
 14 13  1  0  0  0  0
 15 36  1  0  0  0  0
 15 35  1  0  0  0  0
 16 17  2  0  0  0  0
 16 21  1  0  0  0  0
 17 18  1  0  0  0  0
 18 38  1  0  0  0  0
 18 19  2  0  0  0  0
 19 22  1  0  0  0  0
 20 39  1  0  0  0  0
 20 19  1  0  0  0  0
 21 20  2  0  0  0  0
 22 43  1  0  0  0  0
 22 42  1  0  0  0  0
 22 41  1  0  0  0  0
 23 45  1  0  0  0  0
 23 44  1  0  0  0  0
 24 25  2  0  0  0  0
 24  8  1  0  0  0  0
 26  4  1  0  0  0  0
 28  1  1  0  0  0  0
 29  1  1  0  0  0  0
 31  2  1  0  0  0  0
 33 11  1  0  0  0  0
 34 15  1  0  0  0  0
 37 17  1  0  0  0  0
 40 21  1  0  0  0  0
 46 23  1  0  0  0  0
 47 26  1  0  0  0  0
M  END
