46555202.xyz
 OpenBabel07262113553D
Cc1[nH]c(c(c1)/C=C/1\C(=O)N=C(N(C1=O)c1cc(Cl)cc(c1)Cl)S)C
 38 40  0  0  0  0  0  0  0  0999 V2000
    3.3547    0.0227    9.3943 C   0  0  0  0  0  0  0  0  0  0  0  0
    2.0824    0.0417    8.6164 C   0  0  0  0  0  0  0  0  0  0  0  0
    0.8413    0.0877    9.2529 N   0  0  0  0  0  0  0  0  0  0  0  0
   -0.1742    0.0874    8.3555 C   0  0  0  0  0  0  0  0  0  0  0  0
    0.4129    0.0420    7.0653 C   0  0  0  0  0  0  0  0  0  0  0  0
    1.8451    0.0130    7.2679 C   0  0  0  0  0  0  0  0  0  0  0  0
   -0.4083    0.0327    5.9039 C   0  0  0  0  0  0  0  0  0  0  0  0
   -0.1973    0.0132    4.5399 C   0  0  0  0  0  0  0  0  0  0  0  0
    1.1126   -0.0008    3.8450 C   0  0  0  0  0  0  0  0  0  0  0  0
    2.1857   -0.0128    4.4255 O   0  0  0  0  0  0  0  0  0  0  0  0
    1.1007   -0.0000    2.4453 N   0  0  0  0  0  0  0  0  0  0  0  0
    0.0000   -0.0000    1.7735 C   0  0  0  0  0  0  0  0  0  0  0  0
   -1.2651    0.0002    2.3383 N   0  0  0  0  0  0  0  0  0  0  0  0
   -1.4434    0.0086    3.7456 C   0  0  0  0  0  0  0  0  0  0  0  0
   -2.5759    0.0121    4.1922 O   0  0  0  0  0  0  0  0  0  0  0  0
   -2.4464   -0.0049    1.5216 C   0  0  0  0  0  0  0  0  0  0  0  0
   -3.0173    1.2095    1.1370 C   0  0  0  0  0  0  0  0  0  0  0  0
   -4.1595    1.1888    0.3363 C   0  0  0  0  0  0  0  0  0  0  0  0
   -4.8844    2.6944   -0.1625 Cl  0  0  0  0  0  0  0  0  0  0  0  0
   -4.7355   -0.0150   -0.0768 C   0  0  0  0  0  0  0  0  0  0  0  0
   -4.1457   -1.2137    0.3317 C   0  0  0  0  0  0  0  0  0  0  0  0
   -3.0036   -1.2244    1.1326 C   0  0  0  0  0  0  0  0  0  0  0  0
   -4.8532   -2.7257   -0.1730 Cl  0  0  0  0  0  0  0  0  0  0  0  0
    0.0000    0.0000    0.0000 S   0  0  0  0  0  0  0  0  0  0  0  0
   -1.6004    0.1735    8.7858 C   0  0  0  0  0  0  0  0  0  0  0  0
    3.4222   -0.8587   10.0559 H   0  0  0  0  0  0  0  0  0  0  0  0
    3.4665    0.9209   10.0267 H   0  0  0  0  0  0  0  0  0  0  0  0
    4.2091   -0.0098    8.7052 H   0  0  0  0  0  0  0  0  0  0  0  0
    0.7128    0.1159   10.2573 H   0  0  0  0  0  0  0  0  0  0  0  0
    2.5766   -0.0275    6.4700 H   0  0  0  0  0  0  0  0  0  0  0  0
   -1.4795    0.0463    6.1304 H   0  0  0  0  0  0  0  0  0  0  0  0
   -2.5730    2.1521    1.4535 H   0  0  0  0  0  0  0  0  0  0  0  0
   -5.6262   -0.0189   -0.7037 H   0  0  0  0  0  0  0  0  0  0  0  0
   -2.5486   -2.1631    1.4456 H   0  0  0  0  0  0  0  0  0  0  0  0
    2.3106   -0.0019   -0.2414 Au  0  0  0  0  0  0  0  0  0  0  0  0
   -2.2716   -0.2705    8.0390 H   0  0  0  0  0  0  0  0  0  0  0  0
   -1.9189    1.2207    8.9320 H   0  0  0  0  0  0  0  0  0  0  0  0
   -1.7600   -0.3586    9.7372 H   0  0  0  0  0  0  0  0  0  0  0  0
  1 27  1  0  0  0  0
  1 26  1  0  0  0  0
  2  3  1  0  0  0  0
  2  1  1  0  0  0  0
  3 29  1  0  0  0  0
  4 25  1  0  0  0  0
  4  3  1  0  0  0  0
  5  6  1  0  0  0  0
  5  4  2  0  0  0  0
  6  2  2  0  0  0  0
  7 31  1  0  0  0  0
  7  5  1  0  0  0  0
  8  7  2  0  0  0  0
  9 10  2  0  0  0  0
  9  8  1  0  0  0  0
 11  9  2  0  0  0  0
 12 13  1  0  0  0  0
 12 11  2  0  0  0  0
 13 14  1  0  0  0  0
 14 15  2  0  0  0  0
 14  8  1  0  0  0  0
 16 13  1  0  0  0  0
 17 32  1  0  0  0  0
 17 16  1  0  0  0  0
 18 17  2  0  0  0  0
 19 18  1  0  0  0  0
 20 21  2  0  0  0  0
 20 18  1  0  0  0  0
 21 22  1  0  0  0  0
 22 34  1  0  0  0  0
 22 16  2  0  0  0  0
 23 21  1  0  0  0  0
 24 12  1  0  0  0  0
 25 37  1  0  0  0  0
 25 38  1  0  0  0  0
 28  1  1  0  0  0  0
 30  6  1  0  0  0  0
 33 20  1  0  0  0  0
 35 24  1  0  0  0  0
 36 25  1  0  0  0  0
M  END
