48247006.xyz
 OpenBabel07262113553D
Cc1ncc2c(n1)CCCC2NC(=O)c1ccc2c(c1)oc(n2)S
 40 43  0  0  1  0  0  0  0  0999 V2000
    9.7233    0.2595    6.0720 C   0  0  0  0  0  0  0  0  0  0  0  0
    8.3359    0.3218    6.6448 C   0  0  0  0  0  0  0  0  0  0  0  0
    7.6020   -0.8045    6.5889 N   0  0  0  0  0  0  0  0  0  0  0  0
    6.3784   -0.7439    7.0994 C   0  0  0  0  0  0  0  0  0  0  0  0
    5.8457    0.4145    7.6801 C   0  0  1  0  0  0  0  0  0  0  0  0
    6.6867    1.5378    7.6837 C   0  0  0  0  0  0  0  0  0  0  0  0
    7.9233    1.4777    7.1680 N   0  0  0  0  0  0  0  0  0  0  0  0
    6.2526    2.8496    8.2901 C   0  0  0  0  0  0  0  0  0  0  0  0
    4.7393    2.9433    8.4956 C   0  0  0  0  0  0  0  0  0  0  0  0
    4.2073    1.6636    9.1396 C   0  0  0  0  0  0  0  0  0  0  0  0
    4.4331    0.4509    8.2225 C   0  0  1  0  0  0  0  0  0  0  0  0
    3.5021    0.4199    7.0957 N   0  0  0  0  0  0  0  0  0  0  0  0
    2.2150   -0.0188    7.2479 C   0  0  0  0  0  0  0  0  0  0  0  0
    1.7872   -0.3988    8.3288 O   0  0  0  0  0  0  0  0  0  0  0  0
    1.3604   -0.0031    6.0129 C   0  0  2  0  0  0  0  0  0  0  0  0
   -0.0388   -0.0234    6.2031 C   0  0  0  0  0  0  0  0  0  0  0  0
   -0.9331   -0.0139    5.1344 C   0  0  0  0  0  0  0  0  0  0  0  0
   -0.3964    0.0025    3.8416 C   0  0  0  0  0  0  0  0  0  0  0  0
    1.0008    0.0055    3.6715 C   0  0  0  0  0  0  0  0  0  0  0  0
    1.9080   -0.0010    4.7166 C   0  0  0  0  0  0  0  0  0  0  0  0
    1.2453   -0.0000    2.3210 O   0  0  0  0  0  0  0  0  0  0  0  0
    0.0000    0.0000    1.7476 C   0  0  0  0  0  0  0  0  0  0  0  0
   -0.9941    0.0015    2.5861 N   0  0  0  0  0  0  0  0  0  0  0  0
    0.0000    0.0000    0.0000 S   0  0  0  0  0  0  0  0  0  0  0  0
   10.3226   -0.4864    6.6183 H   0  0  0  0  0  0  0  0  0  0  0  0
    9.6853   -0.0718    5.0224 H   0  0  0  0  0  0  0  0  0  0  0  0
   10.2089    1.2407    6.1371 H   0  0  0  0  0  0  0  0  0  0  0  0
    5.7723   -1.6585    7.0554 H   0  0  0  0  0  0  0  0  0  0  0  0
    6.6451    3.6652    7.6636 H   0  0  0  0  0  0  0  0  0  0  0  0
    6.7702    2.9462    9.2625 H   0  0  0  0  0  0  0  0  0  0  0  0
    4.4945    3.8225    9.1109 H   0  0  0  0  0  0  0  0  0  0  0  0
    4.2367    3.0977    7.5240 H   0  0  0  0  0  0  0  0  0  0  0  0
    4.7322    1.4829   10.0941 H   0  0  0  0  0  0  0  0  0  0  0  0
    3.1352    1.7291    9.3719 H   0  0  0  0  0  0  0  0  0  0  0  0
    4.2306   -0.4637    8.8004 H   0  0  0  0  0  0  0  0  0  0  0  0
    3.7749    0.8841    6.2396 H   0  0  0  0  0  0  0  0  0  0  0  0
   -0.3991   -0.0516    7.2324 H   0  0  0  0  0  0  0  0  0  0  0  0
   -2.0127   -0.0249    5.2900 H   0  0  0  0  0  0  0  0  0  0  0  0
    2.9816   -0.0377    4.5279 H   0  0  0  0  0  0  0  0  0  0  0  0
   -2.2901   -0.0021   -0.3064 Au  0  0  0  0  0  0  0  0  0  0  0  0
  1 27  1  0  0  0  0
  1 25  1  0  0  0  0
  1  2  1  0  0  0  0
  2  7  2  0  0  0  0
  3  2  2  0  0  0  0
  3  4  2  0  0  0  0
  4  5  1  0  0  0  0
  5  6  1  0  0  0  0
  5 11  1  6  0  0  0
  6  8  1  0  0  0  0
  7  6  2  0  0  0  0
  8  9  1  0  0  0  0
  8 30  1  0  0  0  0
  9 31  1  0  0  0  0
  9 10  1  0  0  0  0
 10 34  1  0  0  0  0
 10 33  1  0  0  0  0
 11 35  1  1  0  0  0
 11 10  1  0  0  0  0
 12 13  1  0  0  0  0
 12 11  1  0  0  0  0
 13 14  2  0  0  0  0
 15 16  1  0  0  0  0
 15 13  1  1  0  0  0
 16 37  1  0  0  0  0
 17 38  1  0  0  0  0
 17 16  2  0  0  0  0
 18 17  1  0  0  0  0
 19 18  1  0  0  0  0
 19 20  2  0  0  0  0
 20 15  1  0  0  0  0
 21 19  1  0  0  0  0
 22 21  1  0  0  0  0
 22 23  2  0  0  0  0
 23 18  2  0  0  0  0
 24 22  1  0  0  0  0
 26  1  1  0  0  0  0
 28  4  1  0  0  0  0
 29  8  1  0  0  0  0
 32  9  1  0  0  0  0
 36 12  1  0  0  0  0
 39 20  1  0  0  0  0
 40 24  1  0  0  0  0
M  RAD  2   5   2  15   2
M  END
