48369822.xyz
 OpenBabel07262113553D
Sc1nnc(s1)c1ccc(c(c1)Cl)Cl
 18 19  0  0  0  0  0  0  0  0999 V2000
    0.0000    0.0000    0.0000 S   0  0  0  0  0  0  0  0  0  0  0  0
   -0.0000   -0.0000    1.7462 C   0  0  0  0  0  0  0  0  0  0  0  0
   -1.0544   -0.0001    2.5284 N   0  0  0  0  0  0  0  0  0  0  0  0
   -0.7510   -0.0001    3.8396 N   0  0  0  0  0  0  0  0  0  0  0  0
    0.5267   -0.0001    4.0998 C   0  0  0  0  0  0  0  0  0  0  0  0
    1.5124    0.0000    2.6337 S   0  0  0  0  0  0  0  0  0  0  0  0
    1.0904    0.0000    5.4516 C   0  0  0  0  0  0  0  0  0  0  0  0
    2.4755   -0.0039    5.6832 C   0  0  0  0  0  0  0  0  0  0  0  0
    2.9732   -0.0037    6.9828 C   0  0  0  0  0  0  0  0  0  0  0  0
    2.1005    0.0004    8.0752 C   0  0  0  0  0  0  0  0  0  0  0  0
    0.7110    0.0042    7.8511 C   0  0  0  0  0  0  0  0  0  0  0  0
    0.2145    0.0040    6.5498 C   0  0  0  0  0  0  0  0  0  0  0  0
   -0.4043    0.0092    9.1833 Cl  0  0  0  0  0  0  0  0  0  0  0  0
    2.7488    0.0008    9.6845 Cl  0  0  0  0  0  0  0  0  0  0  0  0
   -2.3042   -0.0047   -0.2796 Au  0  0  0  0  0  0  0  0  0  0  0  0
    3.1762   -0.0073    4.8455 H   0  0  0  0  0  0  0  0  0  0  0  0
    4.0480   -0.0067    7.1678 H   0  0  0  0  0  0  0  0  0  0  0  0
   -0.8608    0.0070    6.3751 H   0  0  0  0  0  0  0  0  0  0  0  0
  1  2  1  0  0  0  0
  2  3  2  0  0  0  0
  2  6  1  0  0  0  0
  3  4  1  0  0  0  0
  4  5  2  0  0  0  0
  5  7  1  0  0  0  0
  6  5  1  0  0  0  0
  7  8  2  0  0  0  0
  7 12  1  0  0  0  0
  8  9  1  0  0  0  0
  9 17  1  0  0  0  0
  9 10  2  0  0  0  0
 10 14  1  0  0  0  0
 11 10  1  0  0  0  0
 11 13  1  0  0  0  0
 12 11  2  0  0  0  0
 15  1  1  0  0  0  0
 16  8  1  0  0  0  0
 18 12  1  0  0  0  0
M  END
