48602397.xyz
 OpenBabel07262113553D
SCCOc1ccc(cc1)C#N
 21 21  0  0  0  0  0  0  0  0999 V2000
    0.0000    0.0000    0.0000 S   0  0  0  0  0  0  0  0  0  0  0  0
    0.0000   -0.0000    1.8285 C   0  0  0  0  0  0  0  0  0  0  0  0
    1.3935   -0.0000    2.4297 C   0  0  0  0  0  0  0  0  0  0  0  0
    1.2527    0.1148    3.8378 O   0  0  0  0  0  0  0  0  0  0  0  0
    2.3522    0.1208    4.6199 C   0  0  0  0  0  0  0  0  0  0  0  0
    3.6674    0.0317    4.1339 C   0  0  0  0  0  0  0  0  0  0  0  0
    4.7372    0.0454    5.0274 C   0  0  0  0  0  0  0  0  0  0  0  0
    4.5180    0.1475    6.4105 C   0  0  0  0  0  0  0  0  0  0  0  0
    3.1941    0.2376    6.8897 C   0  0  0  0  0  0  0  0  0  0  0  0
    2.1270    0.2243    6.0055 C   0  0  0  0  0  0  0  0  0  0  0  0
    5.6232    0.1599    7.3222 C   0  0  0  0  0  0  0  0  0  0  0  0
    6.5186    0.1694    8.0621 N   0  0  0  0  0  0  0  0  0  0  0  0
    0.9574   -2.0186   -0.5261 Au  0  0  0  0  0  0  0  0  0  0  0  0
   -0.5171    0.9374    2.0945 H   0  0  0  0  0  0  0  0  0  0  0  0
   -0.5966   -0.8315    2.2290 H   0  0  0  0  0  0  0  0  0  0  0  0
    1.9851    0.8397    2.0252 H   0  0  0  0  0  0  0  0  0  0  0  0
    1.9170   -0.9392    2.1712 H   0  0  0  0  0  0  0  0  0  0  0  0
    3.8674   -0.0465    3.0662 H   0  0  0  0  0  0  0  0  0  0  0  0
    5.7587   -0.0233    4.6492 H   0  0  0  0  0  0  0  0  0  0  0  0
    3.0150    0.3176    7.9632 H   0  0  0  0  0  0  0  0  0  0  0  0
    1.0968    0.2927    6.3584 H   0  0  0  0  0  0  0  0  0  0  0  0
  1  2  1  0  0  0  0
  2 14  1  0  0  0  0
  2 15  1  0  0  0  0
  2  3  1  0  0  0  0
  3  4  1  0  0  0  0
  4  5  1  0  0  0  0
  5 10  1  0  0  0  0
  6  5  2  0  0  0  0
  6  7  1  0  0  0  0
  7  8  2  0  0  0  0
  8  9  1  0  0  0  0
  8 11  1  0  0  0  0
  9 20  1  0  0  0  0
 10 21  1  0  0  0  0
 10  9  2  0  0  0  0
 11 12  3  0  0  0  0
 13  1  1  0  0  0  0
 16  3  1  0  0  0  0
 17  3  1  0  0  0  0
 18  6  1  0  0  0  0
 19  7  1  0  0  0  0
M  END
