49330789.xyz
 OpenBabel07262113553D
Cc1ccc(c(c1)C(=O)N1CCCC(C1)c1nnc(n1C)S)I
 42 45  0  0  1  0  0  0  0  0999 V2000
   -3.6542   -3.5499    1.9481 C   0  0  0  0  0  0  0  0  0  0  0  0
   -2.4089   -4.3740    2.1453 C   0  0  0  0  0  0  0  0  0  0  0  0
   -2.4253   -5.7742    2.0389 C   0  0  0  0  0  0  0  0  0  0  0  0
   -1.2674   -6.5312    2.2230 C   0  0  0  0  0  0  0  0  0  0  0  0
   -0.0581   -5.8883    2.5051 C   0  0  0  0  0  0  0  0  0  0  0  0
   -0.0133   -4.4956    2.6141 C   0  0  0  0  0  0  0  0  0  0  0  0
   -1.1917   -3.7524    2.4428 C   0  0  0  0  0  0  0  0  0  0  0  0
    1.2568   -3.7151    2.7957 C   0  0  1  0  0  0  0  0  0  0  0  0
    1.9506   -3.4186    1.7963 O   0  0  0  0  0  0  0  0  0  0  0  0
    1.5545   -3.2691    4.0288 N   0  0  2  0  0  0  0  0  0  0  0  0
    0.8953   -3.7208    5.2583 C   0  0  0  0  0  0  0  0  0  0  0  0
    0.1868   -2.5672    5.9700 C   0  0  0  0  0  0  0  0  0  0  0  0
    1.0843   -1.3288    6.1132 C   0  0  0  0  0  0  0  0  0  0  0  0
    1.7789   -0.9425    4.7927 C   0  0  1  0  0  0  0  0  0  0  0  0
    2.5174   -2.1909    4.2309 C   0  0  0  0  0  0  0  0  0  0  0  0
    0.8086   -0.4303    3.7631 C   0  0  0  0  0  0  0  0  0  0  0  0
   -0.5003   -0.5660    3.8099 N   0  0  0  0  0  0  0  0  0  0  0  0
   -1.0107   -0.2979    2.5659 N   0  0  0  0  0  0  0  0  0  0  0  0
    0.0000    0.0000    1.7717 C   0  0  0  0  0  0  0  0  0  0  0  0
    1.1760   -0.0000    2.5121 N   0  0  0  0  0  0  0  0  0  0  0  0
    2.5004    0.3224    2.0228 C   0  0  0  0  0  0  0  0  0  0  0  0
    0.0000    0.0000    0.0000 S   0  0  0  0  0  0  0  0  0  0  0  0
    1.6999   -7.0453    2.8108 I   0  0  0  0  0  0  0  0  0  0  0  0
   -3.4257   -2.4754    1.9873 H   0  0  0  0  0  0  0  0  0  0  0  0
   -4.4033   -3.7723    2.7264 H   0  0  0  0  0  0  0  0  0  0  0  0
   -4.1224   -3.7692    0.9750 H   0  0  0  0  0  0  0  0  0  0  0  0
   -3.3625   -6.2880    1.8075 H   0  0  0  0  0  0  0  0  0  0  0  0
   -1.3036   -7.6187    2.1427 H   0  0  0  0  0  0  0  0  0  0  0  0
   -1.1610   -2.6646    2.5335 H   0  0  0  0  0  0  0  0  0  0  0  0
    0.1934   -4.5253    5.0120 H   0  0  0  0  0  0  0  0  0  0  0  0
    1.6811   -4.1547    5.9025 H   0  0  0  0  0  0  0  0  0  0  0  0
   -0.1356   -2.9140    6.9648 H   0  0  0  0  0  0  0  0  0  0  0  0
   -0.7083   -2.2876    5.3999 H   0  0  0  0  0  0  0  0  0  0  0  0
    1.8737   -1.5236    6.8596 H   0  0  0  0  0  0  0  0  0  0  0  0
    0.4884   -0.4817    6.4825 H   0  0  0  0  0  0  0  0  0  0  0  0
    2.5449   -0.1755    5.0006 H   0  0  0  0  0  0  0  0  0  0  0  0
    3.2814   -2.5189    4.9555 H   0  0  0  0  0  0  0  0  0  0  0  0
    3.0159   -1.9957    3.2771 H   0  0  0  0  0  0  0  0  0  0  0  0
    3.1080    0.7304    2.8418 H   0  0  0  0  0  0  0  0  0  0  0  0
    2.9981   -0.5639    1.5972 H   0  0  0  0  0  0  0  0  0  0  0  0
    2.4078    1.0685    1.2238 H   0  0  0  0  0  0  0  0  0  0  0  0
    0.9720   -2.1348    0.2075 Au  0  0  0  0  0  0  0  0  0  0  0  0
  1 24  1  0  0  0  0
  1  2  1  0  0  0  0
  1 25  1  0  0  0  0
  2  7  1  0  0  0  0
  3  2  2  0  0  0  0
  3  4  1  0  0  0  0
  4  5  2  0  0  0  0
  5  6  1  0  0  0  0
  5 23  1  0  0  0  0
  6  8  1  0  0  0  0
  7 29  1  0  0  0  0
  7  6  2  0  0  0  0
  8 10  1  6  0  0  0
  9  8  1  0  0  0  0
 10 15  1  6  0  0  0
 10 11  1  0  0  0  0
 11 31  1  0  0  0  0
 11 12  1  0  0  0  0
 12 13  1  0  0  0  0
 12 32  1  0  0  0  0
 13 35  1  0  0  0  0
 13 34  1  0  0  0  0
 14 36  1  1  0  0  0
 14 13  1  0  0  0  0
 15 14  1  0  0  0  0
 15 37  1  0  0  0  0
 16 17  2  0  0  0  0
 16 14  1  0  0  0  0
 18 17  1  0  0  0  0
 19 20  1  0  0  0  0
 19 18  2  0  0  0  0
 20 16  1  0  0  0  0
 21 20  1  0  0  0  0
 21 39  1  0  0  0  0
 22 42  1  0  0  0  0
 22 19  1  0  0  0  0
 26  1  1  0  0  0  0
 27  3  1  0  0  0  0
 28  4  1  0  0  0  0
 30 11  1  0  0  0  0
 33 12  1  0  0  0  0
 38 15  1  0  0  0  0
 40 21  1  0  0  0  0
 41 21  1  0  0  0  0
 42  9  1  0  0  0  0
M  RAD  1   8   2
M  END
