49365773.xyz
 OpenBabel07262113553D
Sc1nnc(n1c1ccccc1)C(C)(C)C
 31 32  0  0  0  0  0  0  0  0999 V2000
    0.0000    0.0000    0.0000 S   0  0  0  0  0  0  0  0  0  0  0  0
    0.0000    0.0000    1.7580 C   0  0  0  0  0  0  0  0  0  0  0  0
   -1.0311   -0.0002    2.5732 N   0  0  0  0  0  0  0  0  0  0  0  0
   -0.5462   -0.0005    3.8534 N   0  0  0  0  0  0  0  0  0  0  0  0
    0.7631   -0.0004    3.8182 C   0  0  0  0  0  0  0  0  0  0  0  0
    1.1732    0.0000    2.4840 N   0  0  0  0  0  0  0  0  0  0  0  0
    2.4763   -0.0020    1.8965 C   0  0  0  0  0  0  0  0  0  0  0  0
    3.1014    1.2107    1.5896 C   0  0  0  0  0  0  0  0  0  0  0  0
    4.3613    1.2053    0.9886 C   0  0  0  0  0  0  0  0  0  0  0  0
    4.9891   -0.0068    0.6869 C   0  0  0  0  0  0  0  0  0  0  0  0
    4.3518   -1.2165    0.9784 C   0  0  0  0  0  0  0  0  0  0  0  0
    3.0919   -1.2170    1.5794 C   0  0  0  0  0  0  0  0  0  0  0  0
    1.6591   -0.0007    5.0398 C   0  0  0  0  0  0  0  0  0  0  0  0
    2.5520   -1.2591    5.0576 C   0  0  0  0  0  0  0  0  0  0  0  0
    2.5430    1.2639    5.0643 C   0  0  0  0  0  0  0  0  0  0  0  0
    0.7584   -0.0071    6.2869 C   0  0  0  0  0  0  0  0  0  0  0  0
   -2.3095   -0.0100   -0.2079 Au  0  0  0  0  0  0  0  0  0  0  0  0
    2.5918    2.1467    1.8231 H   0  0  0  0  0  0  0  0  0  0  0  0
    4.8521    2.1517    0.7514 H   0  0  0  0  0  0  0  0  0  0  0  0
    5.9748   -0.0087    0.2163 H   0  0  0  0  0  0  0  0  0  0  0  0
    4.8352   -2.1647    0.7333 H   0  0  0  0  0  0  0  0  0  0  0  0
    2.5750   -2.1508    1.8056 H   0  0  0  0  0  0  0  0  0  0  0  0
    3.2662   -1.2698    4.2227 H   0  0  0  0  0  0  0  0  0  0  0  0
    1.9418   -2.1740    5.0051 H   0  0  0  0  0  0  0  0  0  0  0  0
    3.1321   -1.2893    5.9934 H   0  0  0  0  0  0  0  0  0  0  0  0
    1.9263    2.1747    5.0167 H   0  0  0  0  0  0  0  0  0  0  0  0
    3.1231    1.2932    6.0001 H   0  0  0  0  0  0  0  0  0  0  0  0
    3.2570    1.2839    4.2294 H   0  0  0  0  0  0  0  0  0  0  0  0
    0.1038    0.8750    6.3078 H   0  0  0  0  0  0  0  0  0  0  0  0
    1.3866   -0.0070    7.1912 H   0  0  0  0  0  0  0  0  0  0  0  0
    0.1103   -0.8940    6.3035 H   0  0  0  0  0  0  0  0  0  0  0  0
  1  2  1  0  0  0  0
  2  6  1  0  0  0  0
  2  3  2  0  0  0  0
  3  4  1  0  0  0  0
  5  4  2  0  0  0  0
  5 13  1  0  0  0  0
  6  5  1  0  0  0  0
  7  6  1  0  0  0  0
  8 18  1  0  0  0  0
  8  7  1  0  0  0  0
  9  8  2  0  0  0  0
 10 11  2  0  0  0  0
 10  9  1  0  0  0  0
 11 12  1  0  0  0  0
 12 22  1  0  0  0  0
 12  7  2  0  0  0  0
 13 14  1  0  0  0  0
 13 15  1  0  0  0  0
 13 16  1  0  0  0  0
 14 25  1  0  0  0  0
 15 27  1  0  0  0  0
 16 31  1  0  0  0  0
 16 29  1  0  0  0  0
 16 30  1  0  0  0  0
 17  1  1  0  0  0  0
 19  9  1  0  0  0  0
 20 10  1  0  0  0  0
 21 11  1  0  0  0  0
 23 14  1  0  0  0  0
 24 14  1  0  0  0  0
 26 15  1  0  0  0  0
 28 15  1  0  0  0  0
M  END
