49392926.xyz
 OpenBabel07262113553D
Clc1ccc(cc1C)OCc1nnc(n1N)S
 28 29  0  0  0  0  0  0  0  0999 V2000
    6.6919   -2.6837    8.6875 Cl  0  0  0  0  0  0  0  0  0  0  0  0
    5.4058   -2.2647    7.5704 C   0  0  0  0  0  0  0  0  0  0  0  0
    4.7774   -1.0296    7.6979 C   0  0  0  0  0  0  0  0  0  0  0  0
    3.7487   -0.6640    6.8242 C   0  0  0  0  0  0  0  0  0  0  0  0
    3.3588   -1.5547    5.8162 C   0  0  0  0  0  0  0  0  0  0  0  0
    4.0008   -2.7980    5.7028 C   0  0  0  0  0  0  0  0  0  0  0  0
    5.0281   -3.1796    6.5672 C   0  0  0  0  0  0  0  0  0  0  0  0
    5.7034   -4.5162    6.4305 C   0  0  0  0  0  0  0  0  0  0  0  0
    2.3747   -1.3104    4.9130 O   0  0  0  0  0  0  0  0  0  0  0  0
    1.7295   -0.0456    4.9307 C   0  0  0  0  0  0  0  0  0  0  0  0
    0.7702    0.0009    3.7991 C   0  0  0  0  0  0  0  0  0  0  0  0
   -0.5359    0.0036    3.8627 N   0  0  0  0  0  0  0  0  0  0  0  0
   -1.0265    0.0160    2.5809 N   0  0  0  0  0  0  0  0  0  0  0  0
   -0.0000    0.0000    1.7531 C   0  0  0  0  0  0  0  0  0  0  0  0
    1.1670   -0.0000    2.4778 N   0  0  0  0  0  0  0  0  0  0  0  0
    2.4809    0.0279    2.0326 N   0  0  0  0  0  0  0  0  0  0  0  0
    0.0000    0.0000    0.0000 S   0  0  0  0  0  0  0  0  0  0  0  0
    5.0930   -0.3475    8.4886 H   0  0  0  0  0  0  0  0  0  0  0  0
    3.2671    0.3050    6.9476 H   0  0  0  0  0  0  0  0  0  0  0  0
    3.6712   -3.4725    4.9101 H   0  0  0  0  0  0  0  0  0  0  0  0
    5.2780   -5.0910    5.5964 H   0  0  0  0  0  0  0  0  0  0  0  0
    6.7854   -4.3958    6.2603 H   0  0  0  0  0  0  0  0  0  0  0  0
    5.5979   -5.1069    7.3546 H   0  0  0  0  0  0  0  0  0  0  0  0
    1.1619    0.1041    5.8638 H   0  0  0  0  0  0  0  0  0  0  0  0
    2.4800    0.7583    4.8285 H   0  0  0  0  0  0  0  0  0  0  0  0
    2.7314   -0.8827    1.6439 H   0  0  0  0  0  0  0  0  0  0  0  0
    2.5689    0.7321    1.2989 H   0  0  0  0  0  0  0  0  0  0  0  0
   -2.3093    0.1485   -0.2001 Au  0  0  0  0  0  0  0  0  0  0  0  0
  2  3  1  0  0  0  0
  2  1  1  0  0  0  0
  3 18  1  0  0  0  0
  4 19  1  0  0  0  0
  4  3  2  0  0  0  0
  5  4  1  0  0  0  0
  6  5  2  0  0  0  0
  6  7  1  0  0  0  0
  7  2  2  0  0  0  0
  8  7  1  0  0  0  0
  8 23  1  0  0  0  0
  9 10  1  0  0  0  0
  9  5  1  0  0  0  0
 10 24  1  0  0  0  0
 11 12  2  0  0  0  0
 11 10  1  0  0  0  0
 13 12  1  0  0  0  0
 14 15  1  0  0  0  0
 14 13  2  0  0  0  0
 15 11  1  0  0  0  0
 16 15  1  0  0  0  0
 17 14  1  0  0  0  0
 20  6  1  0  0  0  0
 21  8  1  0  0  0  0
 22  8  1  0  0  0  0
 25 10  1  0  0  0  0
 26 16  1  0  0  0  0
 27 16  1  0  0  0  0
 28 17  1  0  0  0  0
M  END
