49809375.xyz
 OpenBabel07262113553D
Fc1ccc(cc1)Oc1ccc(cc1)S
 24 25  0  0  0  0  0  0  0  0999 V2000
   -4.0862    1.8445    9.1078 F   0  0  0  0  0  0  0  0  0  0  0  0
   -3.0762    1.4473    8.3211 C   0  0  0  0  0  0  0  0  0  0  0  0
   -2.5335    2.3487    7.4062 C   0  0  0  0  0  0  0  0  0  0  0  0
   -1.4801    1.9368    6.5898 C   0  0  0  0  0  0  0  0  0  0  0  0
   -0.9919    0.6298    6.6943 C   0  0  0  0  0  0  0  0  0  0  0  0
   -1.5444   -0.2648    7.6128 C   0  0  0  0  0  0  0  0  0  0  0  0
   -2.5933    0.1465    8.4383 C   0  0  0  0  0  0  0  0  0  0  0  0
    0.0848    0.2153    5.9404 O   0  0  0  0  0  0  0  0  0  0  0  0
    0.0002    0.1693    4.5779 C   0  0  0  0  0  0  0  0  0  0  0  0
   -1.2162    0.1668    3.8806 C   0  0  0  0  0  0  0  0  0  0  0  0
   -1.2078    0.0835    2.4894 C   0  0  0  0  0  0  0  0  0  0  0  0
    0.0000   -0.0000    1.7761 C   0  0  0  0  0  0  0  0  0  0  0  0
    1.2115   -0.0000    2.4934 C   0  0  0  0  0  0  0  0  0  0  0  0
    1.2142    0.0844    3.8808 C   0  0  0  0  0  0  0  0  0  0  0  0
    0.0000    0.0000    0.0000 S   0  0  0  0  0  0  0  0  0  0  0  0
   -2.9353    3.3617    7.3495 H   0  0  0  0  0  0  0  0  0  0  0  0
   -1.0323    2.6243    5.8702 H   0  0  0  0  0  0  0  0  0  0  0  0
   -1.1409   -1.2766    7.6747 H   0  0  0  0  0  0  0  0  0  0  0  0
   -3.0428   -0.5288    9.1682 H   0  0  0  0  0  0  0  0  0  0  0  0
   -2.1607    0.2246    4.4221 H   0  0  0  0  0  0  0  0  0  0  0  0
   -2.1504    0.0765    1.9389 H   0  0  0  0  0  0  0  0  0  0  0  0
    2.1532   -0.0643    1.9454 H   0  0  0  0  0  0  0  0  0  0  0  0
    2.1453    0.0876    4.4500 H   0  0  0  0  0  0  0  0  0  0  0  0
   -0.0431   -2.2409   -0.5456 Au  0  0  0  0  0  0  0  0  0  0  0  0
  2  7  1  0  0  0  0
  2  1  1  0  0  0  0
  3  2  2  0  0  0  0
  4  5  2  0  0  0  0
  4  3  1  0  0  0  0
  5  6  1  0  0  0  0
  6 18  1  0  0  0  0
  6  7  2  0  0  0  0
  7 19  1  0  0  0  0
  8  5  1  0  0  0  0
  9  8  1  0  0  0  0
 10 20  1  0  0  0  0
 10  9  2  0  0  0  0
 11 10  1  0  0  0  0
 12 11  2  0  0  0  0
 12 13  1  0  0  0  0
 13 14  2  0  0  0  0
 14 23  1  0  0  0  0
 14  9  1  0  0  0  0
 15 12  1  0  0  0  0
 16  3  1  0  0  0  0
 17  4  1  0  0  0  0
 21 11  1  0  0  0  0
 22 13  1  0  0  0  0
 24 15  1  0  0  0  0
M  END
