50003728.xyz
 OpenBabel07262113553D
Brc1ccc2c(c1)c1nnc(nc1n2Cc1ccccc1)S
 33 36  0  0  0  0  0  0  0  0999 V2000
    0.7036   -0.0653    9.8180 Br  0  0  0  0  0  0  0  0  0  0  0  0
   -0.2640   -0.0497    8.1748 C   0  0  0  0  0  0  0  0  0  0  0  0
   -1.6693   -0.0612    8.2148 C   0  0  0  0  0  0  0  0  0  0  0  0
   -2.4183   -0.0514    7.0357 C   0  0  0  0  0  0  0  0  0  0  0  0
   -1.7268   -0.0261    5.8244 C   0  0  0  0  0  0  0  0  0  0  0  0
   -0.3038   -0.0203    5.7855 C   0  0  0  0  0  0  0  0  0  0  0  0
    0.4378   -0.0309    6.9696 C   0  0  0  0  0  0  0  0  0  0  0  0
    0.0488   -0.0068    4.3801 C   0  0  0  0  0  0  0  0  0  0  0  0
    1.2088   -0.0044    3.7426 N   0  0  0  0  0  0  0  0  0  0  0  0
    1.1881   -0.0000    2.4193 N   0  0  0  0  0  0  0  0  0  0  0  0
    0.0000   -0.0000    1.7624 C   0  0  0  0  0  0  0  0  0  0  0  0
   -1.2202   -0.0018    2.3297 N   0  0  0  0  0  0  0  0  0  0  0  0
   -1.1791   -0.0031    3.6462 C   0  0  0  0  0  0  0  0  0  0  0  0
   -2.2342   -0.0061    4.5170 N   0  0  0  0  0  0  0  0  0  0  0  0
   -3.6359   -0.0264    4.1372 C   0  0  0  0  0  0  0  0  0  0  0  0
   -4.3409   -1.3043    4.5425 C   0  0  0  0  0  0  0  0  0  0  0  0
   -5.5850   -1.2585    5.1818 C   0  0  0  0  0  0  0  0  0  0  0  0
   -6.2421   -2.4382    5.5445 C   0  0  0  0  0  0  0  0  0  0  0  0
   -5.6544   -3.6759    5.2755 C   0  0  0  0  0  0  0  0  0  0  0  0
   -4.4094   -3.7288    4.6397 C   0  0  0  0  0  0  0  0  0  0  0  0
   -3.7575   -2.5505    4.2747 C   0  0  0  0  0  0  0  0  0  0  0  0
    0.0000    0.0000    0.0000 S   0  0  0  0  0  0  0  0  0  0  0  0
   -2.1773   -0.0829    9.1797 H   0  0  0  0  0  0  0  0  0  0  0  0
   -3.5074   -0.0777    7.0706 H   0  0  0  0  0  0  0  0  0  0  0  0
    1.5275   -0.0255    6.9437 H   0  0  0  0  0  0  0  0  0  0  0  0
   -3.6506    0.0974    3.0434 H   0  0  0  0  0  0  0  0  0  0  0  0
   -4.1457    0.8453    4.5782 H   0  0  0  0  0  0  0  0  0  0  0  0
   -6.0446   -0.2903    5.4004 H   0  0  0  0  0  0  0  0  0  0  0  0
   -7.2125   -2.3882    6.0440 H   0  0  0  0  0  0  0  0  0  0  0  0
   -6.1631   -4.5991    5.5625 H   0  0  0  0  0  0  0  0  0  0  0  0
   -3.9443   -4.6942    4.4267 H   0  0  0  0  0  0  0  0  0  0  0  0
   -2.7849   -2.5964    3.7784 H   0  0  0  0  0  0  0  0  0  0  0  0
    2.2879    0.0008   -0.3466 Au  0  0  0  0  0  0  0  0  0  0  0  0
  2  3  1  0  0  0  0
  2  1  1  0  0  0  0
  3 23  1  0  0  0  0
  4 24  1  0  0  0  0
  4  3  2  0  0  0  0
  5  4  1  0  0  0  0
  6  5  2  0  0  0  0
  6  7  1  0  0  0  0
  7  2  2  0  0  0  0
  8  6  1  0  0  0  0
  9  8  2  0  0  0  0
 10  9  1  0  0  0  0
 11 12  2  0  0  0  0
 11 10  2  0  0  0  0
 12 13  2  0  0  0  0
 13  8  1  0  0  0  0
 13 14  1  0  0  0  0
 14  5  1  0  0  0  0
 15 14  1  0  0  0  0
 15 16  1  0  0  0  0
 15 27  1  0  0  0  0
 16 17  1  0  0  0  0
 17 28  1  0  0  0  0
 17 18  2  0  0  0  0
 18 29  1  0  0  0  0
 19 18  1  0  0  0  0
 19 30  1  0  0  0  0
 20 19  2  0  0  0  0
 21 16  2  0  0  0  0
 21 20  1  0  0  0  0
 22 11  1  0  0  0  0
 25  7  1  0  0  0  0
 26 15  1  0  0  0  0
 31 20  1  0  0  0  0
 32 21  1  0  0  0  0
 33 22  1  0  0  0  0
M  END
