50323645.xyz
 OpenBabel07262113553D
O=C(N1CCC(CC1)NC(=O)c1ccc2c(c1)oc(n2)S)C(C)C
 45 47  0  0  1  0  0  0  0  0999 V2000
    5.4140   -0.9337    4.5692 O   0  0  0  0  0  0  0  0  0  0  0  0
    5.1311   -1.8600    5.3248 C   0  0  0  0  0  0  0  0  0  0  0  0
    5.6316   -1.9012    6.6043 N   0  0  0  0  0  0  0  0  0  0  0  0
    6.5928   -0.8757    6.9998 C   0  0  0  0  0  0  0  0  0  0  0  0
    5.9037    0.3478    7.6469 C   0  0  0  0  0  0  0  0  0  0  0  0
    4.5103   -0.0295    8.1731 C   0  0  0  0  0  0  0  0  0  0  0  0
    4.5632   -1.4385    8.7898 C   0  0  0  0  0  0  0  0  0  0  0  0
    4.9263   -2.5092    7.7337 C   0  0  0  0  0  0  0  0  0  0  0  0
    3.5548    0.0524    7.0733 N   0  0  0  0  0  0  0  0  0  0  0  0
    2.2132   -0.0892    7.2532 C   0  0  0  0  0  0  0  0  0  0  0  0
    1.7235   -0.2634    8.3638 O   0  0  0  0  0  0  0  0  0  0  0  0
    1.3646   -0.0379    6.0114 C   0  0  2  0  0  0  0  0  0  0  0  0
   -0.0350   -0.0423    6.2019 C   0  0  0  0  0  0  0  0  0  0  0  0
   -0.9323   -0.0214    5.1359 C   0  0  0  0  0  0  0  0  0  0  0  0
   -0.3979   -0.0031    3.8421 C   0  0  0  0  0  0  0  0  0  0  0  0
    0.9988    0.0006    3.6735 C   0  0  0  0  0  0  0  0  0  0  0  0
    1.9106   -0.0179    4.7135 C   0  0  0  0  0  0  0  0  0  0  0  0
    1.2441   -0.0000    2.3214 O   0  0  0  0  0  0  0  0  0  0  0  0
   -0.0000   -0.0000    1.7482 C   0  0  0  0  0  0  0  0  0  0  0  0
   -0.9951   -0.0002    2.5857 N   0  0  0  0  0  0  0  0  0  0  0  0
    0.0000    0.0000    0.0000 S   0  0  0  0  0  0  0  0  0  0  0  0
    4.2545   -3.0299    4.8576 C   0  0  0  0  0  0  0  0  0  0  0  0
    3.8528   -2.8509    3.3927 C   0  0  0  0  0  0  0  0  0  0  0  0
    4.9669   -4.3771    5.0635 C   0  0  0  0  0  0  0  0  0  0  0  0
    7.1669   -0.5837    6.1137 H   0  0  0  0  0  0  0  0  0  0  0  0
    7.2838   -1.3454    7.7189 H   0  0  0  0  0  0  0  0  0  0  0  0
    6.5180    0.7195    8.4809 H   0  0  0  0  0  0  0  0  0  0  0  0
    5.8134    1.1749    6.9259 H   0  0  0  0  0  0  0  0  0  0  0  0
    4.1902    0.6762    8.9562 H   0  0  0  0  0  0  0  0  0  0  0  0
    3.5943   -1.6731    9.2495 H   0  0  0  0  0  0  0  0  0  0  0  0
    5.3133   -1.4200    9.5974 H   0  0  0  0  0  0  0  0  0  0  0  0
    5.5440   -3.3023    8.1912 H   0  0  0  0  0  0  0  0  0  0  0  0
    4.0129   -2.9861    7.3642 H   0  0  0  0  0  0  0  0  0  0  0  0
    3.9215    0.2547    6.1517 H   0  0  0  0  0  0  0  0  0  0  0  0
   -0.3901   -0.0691    7.2330 H   0  0  0  0  0  0  0  0  0  0  0  0
   -2.0116   -0.0261    5.2945 H   0  0  0  0  0  0  0  0  0  0  0  0
    2.9806   -0.0381    4.5034 H   0  0  0  0  0  0  0  0  0  0  0  0
   -2.2905    0.0053   -0.3026 Au  0  0  0  0  0  0  0  0  0  0  0  0
    3.3349   -3.0175    5.4705 H   0  0  0  0  0  0  0  0  0  0  0  0
    4.7437   -2.8265    2.7479 H   0  0  0  0  0  0  0  0  0  0  0  0
    3.2133   -3.6885    3.0745 H   0  0  0  0  0  0  0  0  0  0  0  0
    3.3025   -1.9179    3.2223 H   0  0  0  0  0  0  0  0  0  0  0  0
    5.2242   -4.5700    6.1137 H   0  0  0  0  0  0  0  0  0  0  0  0
    5.9004   -4.4069    4.4791 H   0  0  0  0  0  0  0  0  0  0  0  0
    4.3273   -5.2029    4.7158 H   0  0  0  0  0  0  0  0  0  0  0  0
  1  2  2  0  0  0  0
  2  3  1  0  0  0  0
  3  4  1  0  0  0  0
  3  8  1  0  0  0  0
  4  5  1  0  0  0  0
  4 26  1  0  0  0  0
  5  6  1  0  0  0  0
  5 27  1  0  0  0  0
  6  7  1  0  0  0  0
  6 29  1  0  0  0  0
  7 30  1  0  0  0  0
  7 31  1  0  0  0  0
  8 32  1  0  0  0  0
  8  7  1  0  0  0  0
  9 10  1  0  0  0  0
  9  6  1  0  0  0  0
 10 11  2  0  0  0  0
 12 13  1  0  0  0  0
 12 10  1  6  0  0  0
 13 35  1  0  0  0  0
 14 36  1  0  0  0  0
 14 13  2  0  0  0  0
 15 14  1  0  0  0  0
 16 15  1  0  0  0  0
 16 17  2  0  0  0  0
 17 12  1  0  0  0  0
 18 16  1  0  0  0  0
 19 18  1  0  0  0  0
 19 20  2  0  0  0  0
 20 15  2  0  0  0  0
 21 19  1  0  0  0  0
 22 24  1  0  0  0  0
 22  2  1  0  0  0  0
 22 39  1  0  0  0  0
 23 22  1  0  0  0  0
 24 43  1  0  0  0  0
 25  4  1  0  0  0  0
 28  5  1  0  0  0  0
 33  8  1  0  0  0  0
 34  9  1  0  0  0  0
 37 17  1  0  0  0  0
 38 21  1  0  0  0  0
 40 23  1  0  0  0  0
 41 23  1  0  0  0  0
 42 23  1  0  0  0  0
 44 24  1  0  0  0  0
 45 24  1  0  0  0  0
M  RAD  1  12   2
M  END
