50334861.xyz
 OpenBabel07262113553D
COC1CCCC1NC(=O)c1cc(F)cc2c1[nH]c(n2)S
 37 39  0  0  1  0  0  0  0  0999 V2000
   -4.7472   -3.0783    7.7543 C   0  0  0  0  0  0  0  0  0  0  0  0
   -4.7394   -1.7225    8.1408 O   0  0  0  0  0  0  0  0  0  0  0  0
   -5.6605   -0.9096    7.4446 C   0  0  1  0  0  0  0  0  0  0  0  0
   -5.7889    0.4602    8.1484 C   0  0  0  0  0  0  0  0  0  0  0  0
   -5.7896    1.5284    7.0277 C   0  0  0  0  0  0  0  0  0  0  0  0
   -5.9676    0.7352    5.7217 C   0  0  0  0  0  0  0  0  0  0  0  0
   -5.2307   -0.5818    5.9909 C   0  0  1  0  0  0  0  0  0  0  0  0
   -3.7859   -0.4260    5.9912 N   0  0  0  0  0  0  0  0  0  0  0  0
   -3.0744   -0.2334    4.8534 C   0  0  0  0  0  0  0  0  0  0  0  0
   -3.6150   -0.1045    3.7534 O   0  0  0  0  0  0  0  0  0  0  0  0
   -1.5857   -0.1820    4.9819 C   0  0  0  0  0  0  0  0  0  0  0  0
   -0.8688   -0.1967    6.1850 C   0  0  0  0  0  0  0  0  0  0  0  0
    0.5357   -0.1581    6.1861 C   0  0  0  0  0  0  0  0  0  0  0  0
    1.1562   -0.1734    7.3785 F   0  0  0  0  0  0  0  0  0  0  0  0
    1.3015   -0.1016    5.0296 C   0  0  0  0  0  0  0  0  0  0  0  0
    0.6052   -0.0755    3.8103 C   0  0  0  0  0  0  0  0  0  0  0  0
   -0.8198   -0.1133    3.8064 C   0  0  0  0  0  0  0  0  0  0  0  0
   -1.1700   -0.0719    2.4846 N   0  0  0  0  0  0  0  0  0  0  0  0
    0.0000    0.0000    1.7542 C   0  0  0  0  0  0  0  0  0  0  0  0
    1.0753    0.0000    2.5199 N   0  0  0  0  0  0  0  0  0  0  0  0
    0.0000    0.0000    0.0000 S   0  0  0  0  0  0  0  0  0  0  0  0
   -4.4364   -3.2157    6.7014 H   0  0  0  0  0  0  0  0  0  0  0  0
   -5.7510   -3.5270    7.8802 H   0  0  0  0  0  0  0  0  0  0  0  0
   -4.0374   -3.6111    8.4025 H   0  0  0  0  0  0  0  0  0  0  0  0
   -6.6422   -1.4176    7.3998 H   0  0  0  0  0  0  0  0  0  0  0  0
   -6.7021    0.4952    8.7602 H   0  0  0  0  0  0  0  0  0  0  0  0
   -4.9403    0.5791    8.8380 H   0  0  0  0  0  0  0  0  0  0  0  0
   -4.8239    2.0558    7.0075 H   0  0  0  0  0  0  0  0  0  0  0  0
   -6.5698    2.2909    7.1655 H   0  0  0  0  0  0  0  0  0  0  0  0
   -7.0328    0.5069    5.5463 H   0  0  0  0  0  0  0  0  0  0  0  0
   -5.5850    1.2399    4.8252 H   0  0  0  0  0  0  0  0  0  0  0  0
   -5.5158   -1.3608    5.2649 H   0  0  0  0  0  0  0  0  0  0  0  0
   -3.3163   -0.7156    6.8430 H   0  0  0  0  0  0  0  0  0  0  0  0
   -1.3673   -0.2216    7.1552 H   0  0  0  0  0  0  0  0  0  0  0  0
    2.3901   -0.0725    5.0744 H   0  0  0  0  0  0  0  0  0  0  0  0
   -2.1335   -0.0750    2.1621 H   0  0  0  0  0  0  0  0  0  0  0  0
   -0.6932    2.1553   -0.4568 Au  0  0  0  0  0  0  0  0  0  0  0  0
  1 23  1  0  0  0  0
  1  2  1  0  0  0  0
  1 24  1  0  0  0  0
  3  7  1  6  0  0  0
  3  2  1  0  0  0  0
  3  4  1  0  0  0  0
  4 26  1  0  0  0  0
  4 27  1  0  0  0  0
  5 29  1  0  0  0  0
  5  4  1  0  0  0  0
  6  7  1  0  0  0  0
  6  5  1  0  0  0  0
  7 32  1  6  0  0  0
  7  8  1  0  0  0  0
  8 33  1  0  0  0  0
  9 11  1  0  0  0  0
  9  8  1  0  0  0  0
 10  9  2  0  0  0  0
 11 12  1  0  0  0  0
 12 13  1  0  0  0  0
 12 34  1  0  0  0  0
 13 14  1  0  0  0  0
 15 35  1  0  0  0  0
 15 13  2  0  0  0  0
 16 15  1  0  0  0  0
 17 16  1  0  0  0  0
 17 11  2  0  0  0  0
 18 17  1  0  0  0  0
 19 18  1  0  0  0  0
 19 20  2  0  0  0  0
 20 16  2  0  0  0  0
 21 19  1  0  0  0  0
 22  1  1  0  0  0  0
 25  3  1  0  0  0  0
 28  5  1  0  0  0  0
 30  6  1  0  0  0  0
 31  6  1  0  0  0  0
 36 18  1  0  0  0  0
 37 21  1  0  0  0  0
M  RAD  1  12   2
M  END
