50786863.xyz
 OpenBabel07262113553D
Nc1ccc(cc1S)S(=O)(=O)N
 20 20  0  0  0  0  0  0  0  0999 V2000
    2.4154   -0.1410    1.8306 N   0  0  0  0  0  0  0  0  0  0  0  0
    1.2329    0.0000    2.4911 C   0  0  0  0  0  0  0  0  0  0  0  0
    1.1888    0.1063    3.9009 C   0  0  0  0  0  0  0  0  0  0  0  0
   -0.0190    0.1969    4.5740 C   0  0  0  0  0  0  0  0  0  0  0  0
   -1.2223    0.1706    3.8519 C   0  0  0  0  0  0  0  0  0  0  0  0
   -1.2141    0.0779    2.4632 C   0  0  0  0  0  0  0  0  0  0  0  0
    0.0000   -0.0000    1.7679 C   0  0  0  0  0  0  0  0  0  0  0  0
    0.0000    0.0000    0.0000 S   0  0  0  0  0  0  0  0  0  0  0  0
   -2.7788    0.2520    4.7245 S   0  0  0  0  0  0  0  0  0  0  0  0
   -2.5173    0.8594    6.0279 O   0  0  0  0  0  0  0  0  0  0  0  0
   -3.7843    0.7536    3.7914 O   0  0  0  0  0  0  0  0  0  0  0  0
   -3.2273   -1.3325    5.0540 N   0  0  0  0  0  0  0  0  0  0  0  0
    3.2794    0.0460    2.3219 H   0  0  0  0  0  0  0  0  0  0  0  0
    2.4027    0.0101    0.8263 H   0  0  0  0  0  0  0  0  0  0  0  0
    2.1273    0.1286    4.4606 H   0  0  0  0  0  0  0  0  0  0  0  0
   -0.0481    0.3074    5.6594 H   0  0  0  0  0  0  0  0  0  0  0  0
   -2.1533    0.0879    1.9081 H   0  0  0  0  0  0  0  0  0  0  0  0
    0.6027   -2.1803   -0.5130 Au  0  0  0  0  0  0  0  0  0  0  0  0
   -2.5824   -1.8020    5.6871 H   0  0  0  0  0  0  0  0  0  0  0  0
   -3.4204   -1.8707    4.2110 H   0  0  0  0  0  0  0  0  0  0  0  0
  1 13  1  0  0  0  0
  1  2  1  0  0  0  0
  2  3  2  0  0  0  0
  3 15  1  0  0  0  0
  3  4  1  0  0  0  0
  4 16  1  0  0  0  0
  5  4  2  0  0  0  0
  5  9  1  0  0  0  0
  6  5  1  0  0  0  0
  7  6  2  0  0  0  0
  7  2  1  0  0  0  0
  8  7  1  0  0  0  0
  9 12  1  0  0  0  0
  9 10  2  0  0  0  0
 11  9  2  0  0  0  0
 12 19  1  0  0  0  0
 14  1  1  0  0  0  0
 17  6  1  0  0  0  0
 18  8  1  0  0  0  0
 20 12  1  0  0  0  0
M  END
