513-44-0.xyz
 OpenBabel08132117233D
S[CH2][CH]([CH3])[CH3]
 15 14  0  0  0  0  0  0  0  0999 V2000
    0.0000    0.0000    0.0000 S   0  0  0  0  0  0  0  0  0  0  0  0
    1.4486   -0.0000    2.3633 C   0  0  0  0  0  0  0  0  0  0  0  0
    0.0000    0.0000    1.8464 C   0  0  0  0  0  0  0  0  0  0  0  0
    1.4496   -0.2479    3.8763 C   0  0  0  0  0  0  0  0  0  0  0  0
    2.1895    1.2942    2.0132 C   0  0  0  0  0  0  0  0  0  0  0  0
    1.9727   -0.8441    1.8784 H   0  0  0  0  0  0  0  0  0  0  0  0
   -0.5266   -0.8961    2.2034 H   0  0  0  0  0  0  0  0  0  0  0  0
   -0.5321    0.8884    2.2194 H   0  0  0  0  0  0  0  0  0  0  0  0
    0.9643   -1.2031    4.1321 H   0  0  0  0  0  0  0  0  0  0  0  0
    2.4791   -0.2756    4.2674 H   0  0  0  0  0  0  0  0  0  0  0  0
    0.9126    0.5569    4.4065 H   0  0  0  0  0  0  0  0  0  0  0  0
    3.2322    1.2571    2.3661 H   0  0  0  0  0  0  0  0  0  0  0  0
    1.7023    2.1610    2.4916 H   0  0  0  0  0  0  0  0  0  0  0  0
    2.2008    1.4755    0.9283 H   0  0  0  0  0  0  0  0  0  0  0  0
   -2.2252    0.0559   -0.5302 Au  0  0  0  0  0  0  0  0  0  0  0  0
  1  3  1  0  0  0  0
  2  4  1  0  0  0  0
  3  7  1  0  0  0  0
  3  8  1  0  0  0  0
  3  2  1  0  0  0  0
  4  9  1  0  0  0  0
  4 10  1  0  0  0  0
  4 11  1  0  0  0  0
  5  2  1  0  0  0  0
  5 12  1  0  0  0  0
  5 13  1  0  0  0  0
  6  2  1  0  0  0  0
 14  5  1  0  0  0  0
 15  1  1  0  0  0  0
M  END
