54506435.xyz
 OpenBabel07262113553D
BrCc1ccc(c(c1CC(=O)O)C#N)S
 23 23  0  0  0  0  0  0  0  0999 V2000
   -0.1052    1.5819    6.9435 Br  0  0  0  0  0  0  0  0  0  0  0  0
   -0.3569   -0.1988    6.0860 C   0  0  0  0  0  0  0  0  0  0  0  0
   -0.1906   -0.1428    4.6030 C   0  0  0  0  0  0  0  0  0  0  0  0
   -1.3350   -0.1621    3.7898 C   0  0  0  0  0  0  0  0  0  0  0  0
   -1.2496   -0.0769    2.4063 C   0  0  0  0  0  0  0  0  0  0  0  0
   -0.0000    0.0000    1.7702 C   0  0  0  0  0  0  0  0  0  0  0  0
    1.1613    0.0000    2.5867 C   0  0  0  0  0  0  0  0  0  0  0  0
    1.0749   -0.0445    3.9961 C   0  0  0  0  0  0  0  0  0  0  0  0
    2.3349    0.0813    4.8097 C   0  0  0  0  0  0  0  0  0  0  0  0
    2.8305    1.5206    4.8782 C   0  0  0  0  0  0  0  0  0  0  0  0
    2.5205    2.4045    4.1238 O   0  0  0  0  0  0  0  0  0  0  0  0
    3.7133    1.6742    5.8794 O   0  0  0  0  0  0  0  0  0  0  0  0
    2.4611    0.0691    1.9905 C   0  0  0  0  0  0  0  0  0  0  0  0
    3.5308    0.1133    1.5381 N   0  0  0  0  0  0  0  0  0  0  0  0
    0.0000    0.0000    0.0000 S   0  0  0  0  0  0  0  0  0  0  0  0
    0.3702   -0.8503    6.5826 H   0  0  0  0  0  0  0  0  0  0  0  0
   -1.3689   -0.5074    6.3676 H   0  0  0  0  0  0  0  0  0  0  0  0
   -2.3193   -0.2217    4.2609 H   0  0  0  0  0  0  0  0  0  0  0  0
   -2.1547   -0.0601    1.7972 H   0  0  0  0  0  0  0  0  0  0  0  0
    3.1550   -0.4996    4.3559 H   0  0  0  0  0  0  0  0  0  0  0  0
    2.2220   -0.2900    5.8346 H   0  0  0  0  0  0  0  0  0  0  0  0
    4.0157    2.5983    5.8501 H   0  0  0  0  0  0  0  0  0  0  0  0
    1.5837    1.5932   -0.5576 Au  0  0  0  0  0  0  0  0  0  0  0  0
  2 17  1  0  0  0  0
  2 16  1  0  0  0  0
  2  1  1  0  0  0  0
  3  2  1  0  0  0  0
  4 18  1  0  0  0  0
  4  3  2  0  0  0  0
  5  4  1  0  0  0  0
  6  5  2  0  0  0  0
  6  7  1  0  0  0  0
  7  8  2  0  0  0  0
  8  3  1  0  0  0  0
  8  9  1  0  0  0  0
  9 10  1  0  0  0  0
  9 21  1  0  0  0  0
 10 12  1  0  0  0  0
 11 10  2  0  0  0  0
 13  7  1  0  0  0  0
 14 13  3  0  0  0  0
 15  6  1  0  0  0  0
 19  5  1  0  0  0  0
 20  9  1  0  0  0  0
 22 12  1  0  0  0  0
 23 15  1  0  0  0  0
M  END
