54518761.xyz
 OpenBabel07262113553D
Clc1ccc(c(n1)S)F
 12 12  0  0  0  0  0  0  0  0999 V2000
    2.6289    0.0000    4.6299 Cl  0  0  0  0  0  0  0  0  0  0  0  0
    1.0935   -0.0000    3.7903 C   0  0  0  0  0  0  0  0  0  0  0  0
   -0.0886   -0.0001    4.5362 C   0  0  0  0  0  0  0  0  0  0  0  0
   -1.2878   -0.0001    3.8194 C   0  0  0  0  0  0  0  0  0  0  0  0
   -1.2418   -0.0001    2.4335 C   0  0  0  0  0  0  0  0  0  0  0  0
   -0.0000    0.0000    1.7676 C   0  0  0  0  0  0  0  0  0  0  0  0
    1.1356    0.0000    2.4708 N   0  0  0  0  0  0  0  0  0  0  0  0
    0.0000    0.0000    0.0000 S   0  0  0  0  0  0  0  0  0  0  0  0
   -2.3723   -0.0000    1.7206 F   0  0  0  0  0  0  0  0  0  0  0  0
   -0.0668   -0.0001    5.6252 H   0  0  0  0  0  0  0  0  0  0  0  0
   -2.2578   -0.0001    4.3208 H   0  0  0  0  0  0  0  0  0  0  0  0
    2.2851    0.0010   -0.3549 Au  0  0  0  0  0  0  0  0  0  0  0  0
  2  3  1  0  0  0  0
  2  1  1  0  0  0  0
  3 10  1  0  0  0  0
  4 11  1  0  0  0  0
  4  3  1  0  0  0  0
  5  4  2  0  0  0  0
  6  5  1  0  0  0  0
  6  7  2  0  0  0  0
  7  2  2  0  0  0  0
  8  6  1  0  0  0  0
  9  5  1  0  0  0  0
 12  8  1  0  0  0  0
M  RAD  1   3   2
M  END
