54547475.xyz
 OpenBabel07262113553D
CCOC(=O)Cc1cc(F)c(c(c1)C#N)S
 26 26  0  0  0  0  0  0  0  0999 V2000
    0.0817    3.6708    8.0673 C   0  0  0  0  0  0  0  0  0  0  0  0
    0.4480    2.3269    8.6699 C   0  0  0  0  0  0  0  0  0  0  0  0
   -0.0751    1.2366    7.8822 O   0  0  0  0  0  0  0  0  0  0  0  0
    0.6407    0.8512    6.8180 C   0  0  0  0  0  0  0  0  0  0  0  0
    1.6859    1.3542    6.4834 O   0  0  0  0  0  0  0  0  0  0  0  0
   -0.0166   -0.3278    6.1143 C   0  0  0  0  0  0  0  0  0  0  0  0
   -0.0070   -0.2115    4.6095 C   0  0  0  0  0  0  0  0  0  0  0  0
    1.2006   -0.0940    3.9044 C   0  0  0  0  0  0  0  0  0  0  0  0
    1.1875   -0.0000    2.5206 C   0  0  0  0  0  0  0  0  0  0  0  0
    2.3542    0.1225    1.8839 F   0  0  0  0  0  0  0  0  0  0  0  0
   -0.0000   -0.0000    1.7686 C   0  0  0  0  0  0  0  0  0  0  0  0
   -1.2124   -0.0993    2.4934 C   0  0  0  0  0  0  0  0  0  0  0  0
   -1.2066   -0.2136    3.8942 C   0  0  0  0  0  0  0  0  0  0  0  0
   -2.4743   -0.0800    1.8097 C   0  0  0  0  0  0  0  0  0  0  0  0
   -3.5249   -0.0636    1.3164 N   0  0  0  0  0  0  0  0  0  0  0  0
    0.0000    0.0000    0.0000 S   0  0  0  0  0  0  0  0  0  0  0  0
   -1.0086    3.7614    7.9448 H   0  0  0  0  0  0  0  0  0  0  0  0
    0.4236    4.4826    8.7285 H   0  0  0  0  0  0  0  0  0  0  0  0
    0.5630    3.8010    7.0873 H   0  0  0  0  0  0  0  0  0  0  0  0
   -0.0050    2.1914    9.6618 H   0  0  0  0  0  0  0  0  0  0  0  0
    1.5390    2.2133    8.7507 H   0  0  0  0  0  0  0  0  0  0  0  0
   -1.0377   -0.4519    6.4948 H   0  0  0  0  0  0  0  0  0  0  0  0
    0.5561   -1.2208    6.4226 H   0  0  0  0  0  0  0  0  0  0  0  0
    2.1556   -0.0588    4.4280 H   0  0  0  0  0  0  0  0  0  0  0  0
   -2.1598   -0.2971    4.4186 H   0  0  0  0  0  0  0  0  0  0  0  0
    1.0105    2.0100   -0.5014 Au  0  0  0  0  0  0  0  0  0  0  0  0
  1  2  1  0  0  0  0
  1 18  1  0  0  0  0
  2 21  1  0  0  0  0
  2 20  1  0  0  0  0
  3  2  1  0  0  0  0
  4  3  1  0  0  0  0
  5  4  2  0  0  0  0
  6 23  1  0  0  0  0
  6 22  1  0  0  0  0
  6  4  1  0  0  0  0
  7  6  1  0  0  0  0
  8 24  1  0  0  0  0
  8  7  1  0  0  0  0
  9  8  2  0  0  0  0
 10  9  1  0  0  0  0
 11 12  2  0  0  0  0
 11  9  1  0  0  0  0
 12 13  1  0  0  0  0
 13 25  1  0  0  0  0
 13  7  2  0  0  0  0
 14 12  1  0  0  0  0
 15 14  3  0  0  0  0
 16 11  1  0  0  0  0
 17  1  1  0  0  0  0
 19  1  1  0  0  0  0
 26 16  1  0  0  0  0
M  END
