54564281.xyz
 OpenBabel07262113553D
CCOC(=O)Cc1c(S)ccnc1C#N
 25 25  0  0  1  0  0  0  0  0999 V2000
    5.2102    2.2445   -1.5785 C   0  0  0  0  0  0  0  0  0  0  0  0
    4.2029    2.5622   -0.4956 C   0  0  0  0  0  0  0  0  0  0  0  0
    3.7659    1.3174    0.0796 O   0  0  0  0  0  0  0  0  0  0  0  0
    2.8659    1.3991    1.0682 C   0  0  0  0  0  0  0  0  0  0  0  0
    2.4046    2.4304    1.4847 O   0  0  0  0  0  0  0  0  0  0  0  0
    2.5404    0.0127    1.6120 C   0  0  0  0  0  0  0  0  0  0  0  0
    1.2651    0.0000    2.4049 C   0  0  2  0  0  0  0  0  0  0  0  0
   -0.0000    0.0000    1.7720 C   0  0  0  0  0  0  0  0  0  0  0  0
    0.0000    0.0000    0.0000 S   0  0  0  0  0  0  0  0  0  0  0  0
   -1.1432    0.0132    2.5825 C   0  0  0  0  0  0  0  0  0  0  0  0
   -0.9984    0.0331    3.9698 C   0  0  0  0  0  0  0  0  0  0  0  0
    0.1790    0.0429    4.5872 N   0  0  0  0  0  0  0  0  0  0  0  0
    1.2704    0.0296    3.8130 C   0  0  0  0  0  0  0  0  0  0  0  0
    2.5407    0.0477    4.5067 C   0  0  0  0  0  0  0  0  0  0  0  0
    3.5732    0.0574    5.0351 N   0  0  0  0  0  0  0  0  0  0  0  0
    4.7595    1.6162   -2.3620 H   0  0  0  0  0  0  0  0  0  0  0  0
    5.5681    3.1758   -2.0439 H   0  0  0  0  0  0  0  0  0  0  0  0
    6.0776    1.7092   -1.1633 H   0  0  0  0  0  0  0  0  0  0  0  0
    3.3232    3.0965   -0.8887 H   0  0  0  0  0  0  0  0  0  0  0  0
    4.6323    3.1900    0.3015 H   0  0  0  0  0  0  0  0  0  0  0  0
    3.3939   -0.2892    2.2388 H   0  0  0  0  0  0  0  0  0  0  0  0
    2.5020   -0.6968    0.7712 H   0  0  0  0  0  0  0  0  0  0  0  0
   -2.2066   -0.0892   -0.6380 Au  0  0  0  0  0  0  0  0  0  0  0  0
   -2.1388    0.0123    2.1361 H   0  0  0  0  0  0  0  0  0  0  0  0
   -1.8881    0.0444    4.6089 H   0  0  0  0  0  0  0  0  0  0  0  0
  1 18  1  0  0  0  0
  1  2  1  0  0  0  0
  2  3  1  0  0  0  0
  2 20  1  0  0  0  0
  3  4  1  0  0  0  0
  4  5  2  0  0  0  0
  4  6  1  0  0  0  0
  6 21  1  0  0  0  0
  7  6  1  6  0  0  0
  7 13  1  0  0  0  0
  8  7  1  0  0  0  0
  8 10  2  0  0  0  0
  9  8  1  0  0  0  0
 10 11  1  0  0  0  0
 11 12  2  0  0  0  0
 11 25  1  0  0  0  0
 13 14  1  0  0  0  0
 13 12  2  0  0  0  0
 14 15  3  0  0  0  0
 16  1  1  0  0  0  0
 17  1  1  0  0  0  0
 19  2  1  0  0  0  0
 22  6  1  0  0  0  0
 23  9  1  0  0  0  0
 24 10  1  0  0  0  0
M  RAD  1   7   2
M  END
