54563029.xyz
 OpenBabel07262113553D
COC(=O)c1ccc(c(c1C#N)S)OC
 24 24  0  0  0  0  0  0  0  0999 V2000
    2.6304   -0.0004    7.3107 C   0  0  0  0  0  0  0  0  0  0  0  0
    1.5897   -0.0001    6.3358 O   0  0  0  0  0  0  0  0  0  0  0  0
    1.9907   -0.0004    5.0495 C   0  0  0  0  0  0  0  0  0  0  0  0
    3.1562   -0.0008    4.7290 O   0  0  0  0  0  0  0  0  0  0  0  0
    0.8438   -0.0002    4.1004 C   0  0  0  0  0  0  0  0  0  0  0  0
   -0.4609   -0.0002    4.5779 C   0  0  0  0  0  0  0  0  0  0  0  0
   -1.5406   -0.0002    3.6937 C   0  0  0  0  0  0  0  0  0  0  0  0
   -1.3252   -0.0001    2.3180 C   0  0  0  0  0  0  0  0  0  0  0  0
   -0.0000   -0.0000    1.7687 C   0  0  0  0  0  0  0  0  0  0  0  0
    1.0837    0.0000    2.6932 C   0  0  0  0  0  0  0  0  0  0  0  0
    2.4301    0.0003    2.2067 C   0  0  0  0  0  0  0  0  0  0  0  0
    3.4556    0.0006    1.6515 N   0  0  0  0  0  0  0  0  0  0  0  0
    0.0000    0.0000    0.0000 S   0  0  0  0  0  0  0  0  0  0  0  0
   -2.3202   -0.0001    1.4111 O   0  0  0  0  0  0  0  0  0  0  0  0
   -3.6659   -0.0003    1.8369 C   0  0  0  0  0  0  0  0  0  0  0  0
    3.2663    0.8911    7.2029 H   0  0  0  0  0  0  0  0  0  0  0  0
    2.1329    0.0001    8.2880 H   0  0  0  0  0  0  0  0  0  0  0  0
    3.2653   -0.8927    7.2034 H   0  0  0  0  0  0  0  0  0  0  0  0
   -0.6316   -0.0004    5.6529 H   0  0  0  0  0  0  0  0  0  0  0  0
   -2.5550   -0.0002    4.0900 H   0  0  0  0  0  0  0  0  0  0  0  0
    2.2334    0.0005   -0.6249 Au  0  0  0  0  0  0  0  0  0  0  0  0
   -3.9030    0.8990    2.4317 H   0  0  0  0  0  0  0  0  0  0  0  0
   -3.9027   -0.8997    2.4317 H   0  0  0  0  0  0  0  0  0  0  0  0
   -4.2761   -0.0004    0.9250 H   0  0  0  0  0  0  0  0  0  0  0  0
  1 17  1  0  0  0  0
  2  1  1  0  0  0  0
  3  2  1  0  0  0  0
  4  3  2  0  0  0  0
  5  6  1  0  0  0  0
  5  3  1  0  0  0  0
  6 19  1  0  0  0  0
  7 20  1  0  0  0  0
  7  6  2  0  0  0  0
  8  7  1  0  0  0  0
  9  8  2  0  0  0  0
  9 10  1  0  0  0  0
 10  5  2  0  0  0  0
 11 10  1  0  0  0  0
 12 11  3  0  0  0  0
 13  9  1  0  0  0  0
 14 15  1  0  0  0  0
 14  8  1  0  0  0  0
 15 23  1  0  0  0  0
 15 22  1  0  0  0  0
 16  1  1  0  0  0  0
 18  1  1  0  0  0  0
 21 13  1  0  0  0  0
 24 15  1  0  0  0  0
M  END
