54565501.xyz
 OpenBabel07262113553D
N#Cc1cc(S)cnc1C(F)(F)F
 16 16  0  0  1  0  0  0  0  0999 V2000
    3.6547   -0.0142    4.9244 N   0  0  0  0  0  0  0  0  0  0  0  0
    2.5996   -0.0145    4.4431 C   0  0  0  0  0  0  0  0  0  0  0  0
    1.3150   -0.0143    3.8045 C   0  0  0  0  0  0  0  0  0  0  0  0
    1.2501    0.0000    2.4052 C   0  0  0  0  0  0  0  0  0  0  0  0
   -0.0000    0.0000    1.7659 C   0  0  1  0  0  0  0  0  0  0  0  0
    0.0000    0.0000    0.0000 S   0  0  0  0  0  0  0  0  0  0  0  0
   -1.1389   -0.0101    2.5977 C   0  0  0  0  0  0  0  0  0  0  0  0
   -1.0742   -0.0209    3.9225 N   0  0  0  0  0  0  0  0  0  0  0  0
    0.1029   -0.0247    4.5293 C   0  0  0  0  0  0  0  0  0  0  0  0
    0.1013   -0.0400    6.0517 C   0  0  0  0  0  0  0  0  0  0  0  0
    0.7499   -1.1238    6.5132 F   0  0  0  0  0  0  0  0  0  0  0  0
   -1.1317   -0.0527    6.5462 F   0  0  0  0  0  0  0  0  0  0  0  0
    0.7363    1.0423    6.5350 F   0  0  0  0  0  0  0  0  0  0  0  0
    2.1750    0.0118    1.8258 H   0  0  0  0  0  0  0  0  0  0  0  0
   -2.2118    0.1641   -0.6146 Au  0  0  0  0  0  0  0  0  0  0  0  0
   -2.1396   -0.0073    2.1504 H   0  0  0  0  0  0  0  0  0  0  0  0
  2  1  3  0  0  0  0
  3  2  1  0  0  0  0
  3  9  1  0  0  0  0
  4  3  2  0  0  0  0
  5  6  1  6  0  0  0
  5  4  1  0  0  0  0
  5  7  1  0  0  0  0
  7  8  2  0  0  0  0
  8  9  2  0  0  0  0
  9 10  1  0  0  0  0
 10 11  1  0  0  0  0
 10 13  1  0  0  0  0
 10 12  1  0  0  0  0
 14  4  1  0  0  0  0
 15  6  1  0  0  0  0
 16  7  1  0  0  0  0
M  RAD  1   5   2
M  END
