54564389.xyz
 OpenBabel07262113553D
COC(=O)Cc1cc(S)c(cn1)C#N
 22 22  0  0  1  0  0  0  0  0999 V2000
   -5.4929   -2.4512    4.4580 C   0  0  0  0  0  0  0  0  0  0  0  0
   -4.4614   -1.5461    4.8586 O   0  0  0  0  0  0  0  0  0  0  0  0
   -3.7827   -0.9492    3.8683 C   0  0  0  0  0  0  0  0  0  0  0  0
   -3.9992   -1.1524    2.6979 O   0  0  0  0  0  0  0  0  0  0  0  0
   -2.7604    0.0271    4.4195 C   0  0  0  0  0  0  0  0  0  0  0  0
   -1.4064   -0.0047    3.7452 C   0  0  0  0  0  0  0  0  0  0  0  0
   -1.2751    0.0017    2.3571 C   0  0  0  0  0  0  0  0  0  0  0  0
   -0.0000   -0.0000    1.7581 C   0  0  0  0  0  0  0  0  0  0  0  0
    0.0000    0.0000    0.0000 S   0  0  0  0  0  0  0  0  0  0  0  0
    1.1104    0.0000    2.6500 C   0  0  1  0  0  0  0  0  0  0  0  0
    0.8590   -0.0038    4.0396 C   0  0  0  0  0  0  0  0  0  0  0  0
   -0.3484   -0.0073    4.5768 N   0  0  0  0  0  0  0  0  0  0  0  0
    2.4705    0.0025    2.2211 C   0  0  0  0  0  0  0  0  0  0  0  0
    3.5909    0.0046    1.8982 N   0  0  0  0  0  0  0  0  0  0  0  0
   -5.0738   -3.2797    3.8679 H   0  0  0  0  0  0  0  0  0  0  0  0
   -5.9423   -2.8294    5.3837 H   0  0  0  0  0  0  0  0  0  0  0  0
   -6.2477   -1.9350    3.8462 H   0  0  0  0  0  0  0  0  0  0  0  0
   -3.2009    1.0335    4.2952 H   0  0  0  0  0  0  0  0  0  0  0  0
   -2.6195   -0.1366    5.4937 H   0  0  0  0  0  0  0  0  0  0  0  0
   -2.1706   -0.0169    1.7368 H   0  0  0  0  0  0  0  0  0  0  0  0
    2.2340    0.0105   -0.5991 Au  0  0  0  0  0  0  0  0  0  0  0  0
    1.7124   -0.0061    4.7267 H   0  0  0  0  0  0  0  0  0  0  0  0
  1  2  1  0  0  0  0
  1 16  1  0  0  0  0
  3  5  1  0  0  0  0
  3  2  1  0  0  0  0
  4  3  2  0  0  0  0
  5 19  1  0  0  0  0
  6  5  1  0  0  0  0
  6 12  2  0  0  0  0
  7  6  1  0  0  0  0
  8  7  2  0  0  0  0
  8 10  1  0  0  0  0
  9  8  1  0  0  0  0
 10 13  1  6  0  0  0
 10 11  1  0  0  0  0
 11 12  2  0  0  0  0
 11 22  1  0  0  0  0
 14 13  3  0  0  0  0
 15  1  1  0  0  0  0
 17  1  1  0  0  0  0
 18  5  1  0  0  0  0
 20  7  1  0  0  0  0
 21  9  1  0  0  0  0
M  RAD  1  10   2
M  END
