54563555.xyz
 OpenBabel07262113553D
COC(=O)c1cc(C#N)cc(c1S)C
 23 23  0  0  0  0  0  0  0  0999 V2000
    3.8061   -1.5748    0.3861 C   0  0  0  0  0  0  0  0  0  0  0  0
    2.5996   -1.3315    1.1094 O   0  0  0  0  0  0  0  0  0  0  0  0
    2.5568   -0.1993    1.8241 C   0  0  0  0  0  0  0  0  0  0  0  0
    3.4988    0.5381    1.9756 O   0  0  0  0  0  0  0  0  0  0  0  0
    1.2241   -0.0000    2.4888 C   0  0  0  0  0  0  0  0  0  0  0  0
    1.2457    0.2182    3.8662 C   0  0  0  0  0  0  0  0  0  0  0  0
    0.0409    0.3675    4.5670 C   0  0  0  0  0  0  0  0  0  0  0  0
    0.0514    0.5679    5.9876 C   0  0  0  0  0  0  0  0  0  0  0  0
    0.0552    0.7265    7.1376 N   0  0  0  0  0  0  0  0  0  0  0  0
   -1.1798    0.3177    3.8734 C   0  0  0  0  0  0  0  0  0  0  0  0
   -1.2230    0.1472    2.4874 C   0  0  0  0  0  0  0  0  0  0  0  0
   -0.0000    0.0000    1.7829 C   0  0  0  0  0  0  0  0  0  0  0  0
    0.0000    0.0000    0.0000 S   0  0  0  0  0  0  0  0  0  0  0  0
   -2.5468    0.1114    1.7770 C   0  0  0  0  0  0  0  0  0  0  0  0
    4.6653   -1.6403    1.0698 H   0  0  0  0  0  0  0  0  0  0  0  0
    3.6577   -2.5258   -0.1391 H   0  0  0  0  0  0  0  0  0  0  0  0
    3.9895   -0.7646   -0.3351 H   0  0  0  0  0  0  0  0  0  0  0  0
    2.2006    0.2623    4.3911 H   0  0  0  0  0  0  0  0  0  0  0  0
   -2.1115    0.4303    4.4308 H   0  0  0  0  0  0  0  0  0  0  0  0
   -0.3146   -2.2357   -0.4686 Au  0  0  0  0  0  0  0  0  0  0  0  0
   -2.5965    0.8763    0.9881 H   0  0  0  0  0  0  0  0  0  0  0  0
   -3.3765    0.2657    2.4805 H   0  0  0  0  0  0  0  0  0  0  0  0
   -2.6897   -0.8585    1.2713 H   0  0  0  0  0  0  0  0  0  0  0  0
  1 15  1  0  0  0  0
  1  2  1  0  0  0  0
  2  3  1  0  0  0  0
  3  4  2  0  0  0  0
  3  5  1  0  0  0  0
  5  6  2  0  0  0  0
  6 18  1  0  0  0  0
  6  7  1  0  0  0  0
  7  8  1  0  0  0  0
  8  9  3  0  0  0  0
 10 19  1  0  0  0  0
 10  7  2  0  0  0  0
 11 10  1  0  0  0  0
 12 11  2  0  0  0  0
 12  5  1  0  0  0  0
 13 12  1  0  0  0  0
 14 22  1  0  0  0  0
 14 11  1  0  0  0  0
 16  1  1  0  0  0  0
 17  1  1  0  0  0  0
 20 13  1  0  0  0  0
 21 14  1  0  0  0  0
 23 14  1  0  0  0  0
M  END
