54564419.xyz
 OpenBabel07262113553D
N#Cc1ccc(nc1S)C(=O)Cl
 15 15  0  0  1  0  0  0  0  0999 V2000
   -3.6035    0.0005    1.9410 N   0  0  0  0  0  0  0  0  0  0  0  0
   -2.4782    0.0001    2.2406 C   0  0  0  0  0  0  0  0  0  0  0  0
   -1.1152   -0.0002    2.6649 C   0  0  2  0  0  0  0  0  0  0  0  0
   -0.8577   -0.0008    4.0482 C   0  0  0  0  0  0  0  0  0  0  0  0
    0.4499   -0.0009    4.5125 C   0  0  0  0  0  0  0  0  0  0  0  0
    1.4717   -0.0003    3.5510 C   0  0  0  0  0  0  0  0  0  0  0  0
    1.2441    0.0000    2.2465 N   0  0  0  0  0  0  0  0  0  0  0  0
    0.0000    0.0000    1.7661 C   0  0  0  0  0  0  0  0  0  0  0  0
    0.0000    0.0000    0.0000 S   0  0  0  0  0  0  0  0  0  0  0  0
    2.8950   -0.0002    4.0511 C   0  0  0  0  0  0  0  0  0  0  0  0
    3.1855   -0.0007    5.2068 O   0  0  0  0  0  0  0  0  0  0  0  0
    4.1277    0.0009    2.7748 Cl  0  0  0  0  0  0  0  0  0  0  0  0
   -1.6983   -0.0011    4.7445 H   0  0  0  0  0  0  0  0  0  0  0  0
    0.6929   -0.0013    5.5743 H   0  0  0  0  0  0  0  0  0  0  0  0
   -2.2173    0.0017   -0.6311 Au  0  0  0  0  0  0  0  0  0  0  0  0
  1  2  3  0  0  0  0
  3  2  1  1  0  0  0
  3  4  1  0  0  0  0
  4  5  2  0  0  0  0
  4 13  1  0  0  0  0
  5 14  1  0  0  0  0
  6 10  1  0  0  0  0
  6  5  1  0  0  0  0
  7  6  2  0  0  0  0
  8  7  2  0  0  0  0
  8  3  1  0  0  0  0
  9  8  1  0  0  0  0
 10 11  2  0  0  0  0
 12 10  1  0  0  0  0
 15  9  1  0  0  0  0
M  RAD  1   3   2
M  END
