54581767.xyz
 OpenBabel07262113553D
Fc1ncc(c(c1)S)F
 12 12  0  0  0  0  0  0  0  0999 V2000
    2.3844    0.1284    4.4788 F   0  0  0  0  0  0  0  0  0  0  0  0
    1.2150    0.1172    3.8371 C   0  0  0  0  0  0  0  0  0  0  0  0
    0.1357    0.2036    4.5782 N   0  0  0  0  0  0  0  0  0  0  0  0
   -1.0445    0.1898    3.9514 C   0  0  0  0  0  0  0  0  0  0  0  0
   -1.1541    0.1033    2.5691 C   0  0  0  0  0  0  0  0  0  0  0  0
    0.0000    0.0000    1.7699 C   0  0  0  0  0  0  0  0  0  0  0  0
    1.2285   -0.0000    2.4450 C   0  0  0  0  0  0  0  0  0  0  0  0
    0.0000    0.0000    0.0000 S   0  0  0  0  0  0  0  0  0  0  0  0
   -2.3718    0.0976    2.0138 F   0  0  0  0  0  0  0  0  0  0  0  0
   -1.9545    0.2603    4.5564 H   0  0  0  0  0  0  0  0  0  0  0  0
    2.1702   -0.0931    1.9034 H   0  0  0  0  0  0  0  0  0  0  0  0
   -1.6796   -1.4732   -0.5584 Au  0  0  0  0  0  0  0  0  0  0  0  0
  2  1  1  0  0  0  0
  2  3  2  0  0  0  0
  4 10  1  0  0  0  0
  4  3  2  0  0  0  0
  5  4  1  0  0  0  0
  6  7  1  0  0  0  0
  6  5  2  0  0  0  0
  7  2  1  0  0  0  0
  8  6  1  0  0  0  0
  9  5  1  0  0  0  0
 11  7  1  0  0  0  0
 12  8  1  0  0  0  0
M  RAD  1   7   2
M  END
