54592656.xyz
 OpenBabel07262113553D
Fc1ccc(c(c1C)S)C
 19 19  0  0  0  0  0  0  0  0999 V2000
   -2.3342    0.2106    4.5616 F   0  0  0  0  0  0  0  0  0  0  0  0
   -1.1836    0.1481    3.8646 C   0  0  0  0  0  0  0  0  0  0  0  0
    0.0132    0.1659    4.5714 C   0  0  0  0  0  0  0  0  0  0  0  0
    1.2149    0.0892    3.8685 C   0  0  0  0  0  0  0  0  0  0  0  0
    1.2384   -0.0000    2.4716 C   0  0  0  0  0  0  0  0  0  0  0  0
    0.0000   -0.0000    1.7809 C   0  0  0  0  0  0  0  0  0  0  0  0
   -1.2370    0.0683    2.4703 C   0  0  0  0  0  0  0  0  0  0  0  0
   -2.5624    0.0228    1.7658 C   0  0  0  0  0  0  0  0  0  0  0  0
    0.0000    0.0000    0.0000 S   0  0  0  0  0  0  0  0  0  0  0  0
    2.5506   -0.1168    1.7441 C   0  0  0  0  0  0  0  0  0  0  0  0
   -0.0135    0.2349    5.6602 H   0  0  0  0  0  0  0  0  0  0  0  0
    2.1585    0.0948    4.4191 H   0  0  0  0  0  0  0  0  0  0  0  0
   -3.3873    0.1948    2.4676 H   0  0  0  0  0  0  0  0  0  0  0  0
   -2.7086   -0.9604    1.2857 H   0  0  0  0  0  0  0  0  0  0  0  0
   -2.6054    0.7674    0.9583 H   0  0  0  0  0  0  0  0  0  0  0  0
   -0.2773   -2.2341   -0.5016 Au  0  0  0  0  0  0  0  0  0  0  0  0
    2.6007   -1.0583    1.1725 H   0  0  0  0  0  0  0  0  0  0  0  0
    3.3921   -0.0926    2.4512 H   0  0  0  0  0  0  0  0  0  0  0  0
    2.6832    0.6931    1.0111 H   0  0  0  0  0  0  0  0  0  0  0  0
  2  1  1  0  0  0  0
  2  3  2  0  0  0  0
  3 11  1  0  0  0  0
  4 12  1  0  0  0  0
  4  3  1  0  0  0  0
  5  4  2  0  0  0  0
  6  7  2  0  0  0  0
  6  5  1  0  0  0  0
  7  2  1  0  0  0  0
  8 13  1  0  0  0  0
  8  7  1  0  0  0  0
  9  6  1  0  0  0  0
 10 18  1  0  0  0  0
 10  5  1  0  0  0  0
 14  8  1  0  0  0  0
 15  8  1  0  0  0  0
 16  9  1  0  0  0  0
 17 10  1  0  0  0  0
 19 10  1  0  0  0  0
M  END
