565726.xyz
 OpenBabel07262113553D
Clc1cccc(c1)/C=N/n1c(S)nnc1c1ccncc1
 31 33  0  0  0  0  0  0  0  0999 V2000
   -7.5863    1.8210    2.3483 Cl  0  0  0  0  0  0  0  0  0  0  0  0
   -6.5152    0.9256    1.3011 C   0  0  0  0  0  0  0  0  0  0  0  0
   -7.0174    0.3765    0.1133 C   0  0  0  0  0  0  0  0  0  0  0  0
   -6.1581   -0.3353   -0.7246 C   0  0  0  0  0  0  0  0  0  0  0  0
   -4.8151   -0.5008   -0.3825 C   0  0  0  0  0  0  0  0  0  0  0  0
   -4.3191    0.0477    0.8115 C   0  0  0  0  0  0  0  0  0  0  0  0
   -5.1791    0.7729    1.6566 C   0  0  0  0  0  0  0  0  0  0  0  0
   -2.9101   -0.1528    1.1568 C   0  0  0  0  0  0  0  0  0  0  0  0
   -2.4419    0.2611    2.2756 N   0  0  0  0  0  0  0  0  0  0  0  0
   -1.1243    0.0960    2.5674 N   0  0  0  0  0  0  0  0  0  0  0  0
    0.0000   -0.0000    1.7522 C   0  0  0  0  0  0  0  0  0  0  0  0
    0.0000    0.0000    0.0000 S   0  0  0  0  0  0  0  0  0  0  0  0
    1.0757   -0.0000    2.5172 N   0  0  0  0  0  0  0  0  0  0  0  0
    0.6896    0.0932    3.8166 N   0  0  0  0  0  0  0  0  0  0  0  0
   -0.6208    0.1596    3.8689 C   0  0  0  0  0  0  0  0  0  0  0  0
   -1.3868    0.2566    5.1153 C   0  0  0  0  0  0  0  0  0  0  0  0
   -2.7683    0.0340    5.2313 C   0  0  0  0  0  0  0  0  0  0  0  0
   -3.3617    0.1448    6.4921 C   0  0  0  0  0  0  0  0  0  0  0  0
   -2.6963    0.4475    7.6073 N   0  0  0  0  0  0  0  0  0  0  0  0
   -1.3789    0.6511    7.4956 C   0  0  0  0  0  0  0  0  0  0  0  0
   -0.6821    0.5704    6.2924 C   0  0  0  0  0  0  0  0  0  0  0  0
   -8.0687    0.5143   -0.1427 H   0  0  0  0  0  0  0  0  0  0  0  0
   -6.5429   -0.7634   -1.6527 H   0  0  0  0  0  0  0  0  0  0  0  0
   -4.1446   -1.0589   -1.0403 H   0  0  0  0  0  0  0  0  0  0  0  0
   -4.7932    1.2120    2.5763 H   0  0  0  0  0  0  0  0  0  0  0  0
   -2.2928   -0.6905    0.4214 H   0  0  0  0  0  0  0  0  0  0  0  0
    2.2987    0.3096   -0.2072 Au  0  0  0  0  0  0  0  0  0  0  0  0
   -3.3720   -0.2212    4.3639 H   0  0  0  0  0  0  0  0  0  0  0  0
   -4.4399   -0.0249    6.5958 H   0  0  0  0  0  0  0  0  0  0  0  0
   -0.8418    0.8958    8.4192 H   0  0  0  0  0  0  0  0  0  0  0  0
    0.3934    0.7433    6.2469 H   0  0  0  0  0  0  0  0  0  0  0  0
  2  7  1  0  0  0  0
  2  1  1  0  0  0  0
  3  2  2  0  0  0  0
  4  5  2  0  0  0  0
  4  3  1  0  0  0  0
  5  6  1  0  0  0  0
  6  8  1  0  0  0  0
  6  7  2  0  0  0  0
  7 25  1  0  0  0  0
  8  9  2  0  0  0  0
  9 10  1  0  0  0  0
 10 15  1  0  0  0  0
 11 13  2  0  0  0  0
 11 10  1  0  0  0  0
 12 11  1  0  0  0  0
 13 14  1  0  0  0  0
 14 15  2  0  0  0  0
 15 16  1  0  0  0  0
 16 17  1  0  0  0  0
 16 21  2  0  0  0  0
 17 18  1  0  0  0  0
 18 29  1  0  0  0  0
 18 19  2  0  0  0  0
 20 19  2  0  0  0  0
 20 30  1  0  0  0  0
 21 20  1  0  0  0  0
 22  3  1  0  0  0  0
 23  4  1  0  0  0  0
 24  5  1  0  0  0  0
 26  8  1  0  0  0  0
 27 12  1  0  0  0  0
 28 17  1  0  0  0  0
 31 21  1  0  0  0  0
M  RAD  1  17   2
M  END
