56749691.xyz
 OpenBabel07262113553D
Sc1cccc(c1Br)C(F)(F)F
 16 16  0  0  0  0  0  0  0  0999 V2000
    0.0000    0.0000    0.0000 S   0  0  0  0  0  0  0  0  0  0  0  0
   -0.0000    0.0000    1.7761 C   0  0  0  0  0  0  0  0  0  0  0  0
    1.2583    0.0000    2.4089 C   0  0  0  0  0  0  0  0  0  0  0  0
    1.3706   -0.1055    3.7901 C   0  0  0  0  0  0  0  0  0  0  0  0
    0.2198   -0.1861    4.5737 C   0  0  0  0  0  0  0  0  0  0  0  0
   -1.0481   -0.1708    3.9829 C   0  0  0  0  0  0  0  0  0  0  0  0
   -1.1599   -0.0892    2.5811 C   0  0  0  0  0  0  0  0  0  0  0  0
   -2.8702   -0.0684    1.7571 Br  0  0  0  0  0  0  0  0  0  0  0  0
   -2.2623   -0.2508    4.8907 C   0  0  0  0  0  0  0  0  0  0  0  0
   -3.0468    0.8321    4.7745 F   0  0  0  0  0  0  0  0  0  0  0  0
   -1.8981   -0.3310    6.1837 F   0  0  0  0  0  0  0  0  0  0  0  0
   -3.0155   -1.3301    4.6311 F   0  0  0  0  0  0  0  0  0  0  0  0
   -1.0462    1.9964   -0.5098 Au  0  0  0  0  0  0  0  0  0  0  0  0
    2.1474    0.0856    1.7821 H   0  0  0  0  0  0  0  0  0  0  0  0
    2.3552   -0.1127    4.2616 H   0  0  0  0  0  0  0  0  0  0  0  0
    0.2955   -0.2572    5.6580 H   0  0  0  0  0  0  0  0  0  0  0  0
  1  2  1  0  0  0  0
  2  3  2  0  0  0  0
  2  7  1  0  0  0  0
  3  4  1  0  0  0  0
  4 15  1  0  0  0  0
  4  5  2  0  0  0  0
  5 16  1  0  0  0  0
  6  5  1  0  0  0  0
  6  9  1  0  0  0  0
  7  6  2  0  0  0  0
  8  7  1  0  0  0  0
  9 11  1  0  0  0  0
 10  9  1  0  0  0  0
 12  9  1  0  0  0  0
 13  1  1  0  0  0  0
 14  3  1  0  0  0  0
M  END
