56973232.xyz
 OpenBabel07262113553D
Cc1nnc(c(c1)S)N
 16 16  0  0  0  0  0  0  0  0999 V2000
   -2.3514    0.2701    4.7460 C   0  0  0  0  0  0  0  0  0  0  0  0
   -1.1144    0.1674    3.8966 C   0  0  0  0  0  0  0  0  0  0  0  0
    0.0619    0.1682    4.5337 N   0  0  0  0  0  0  0  0  0  0  0  0
    1.1955    0.0861    3.8679 N   0  0  0  0  0  0  0  0  0  0  0  0
    1.2069    0.0000    2.5306 C   0  0  0  0  0  0  0  0  0  0  0  0
    0.0000   -0.0000    1.7688 C   0  0  0  0  0  0  0  0  0  0  0  0
   -1.1797    0.0758    2.4949 C   0  0  0  0  0  0  0  0  0  0  0  0
    0.0000    0.0000    0.0000 S   0  0  0  0  0  0  0  0  0  0  0  0
    2.4272   -0.1477    1.9367 N   0  0  0  0  0  0  0  0  0  0  0  0
   -3.0250   -0.5867    4.5811 H   0  0  0  0  0  0  0  0  0  0  0  0
   -2.9214    1.1855    4.5160 H   0  0  0  0  0  0  0  0  0  0  0  0
   -2.0596    0.2939    5.8040 H   0  0  0  0  0  0  0  0  0  0  0  0
   -2.1406    0.0664    1.9758 H   0  0  0  0  0  0  0  0  0  0  0  0
    0.9339   -2.0739   -0.4564 Au  0  0  0  0  0  0  0  0  0  0  0  0
    3.2243    0.0155    2.5424 H   0  0  0  0  0  0  0  0  0  0  0  0
    2.5074    0.1267    0.9640 H   0  0  0  0  0  0  0  0  0  0  0  0
  1 12  1  0  0  0  0
  2  3  2  0  0  0  0
  2  1  1  0  0  0  0
  4  3  1  0  0  0  0
  5  4  2  0  0  0  0
  6  7  2  0  0  0  0
  6  5  1  0  0  0  0
  7  2  1  0  0  0  0
  8  6  1  0  0  0  0
  9  5  1  0  0  0  0
  9 15  1  0  0  0  0
 10  1  1  0  0  0  0
 11  1  1  0  0  0  0
 13  7  1  0  0  0  0
 14  8  1  0  0  0  0
 16  9  1  0  0  0  0
M  END
