5801170.xyz
 OpenBabel07262113553D
N#Cc1c(=O)[nH]c(nc1c1cccs1)S
 20 21  0  0  1  0  0  0  0  0999 V2000
    0.5025    0.0012    7.0624 N   0  0  0  0  0  0  0  0  0  0  0  0
    0.3632    0.0009    5.9085 C   0  0  0  0  0  0  0  0  0  0  0  0
    0.2108    0.0005    4.4947 C   0  0  1  0  0  0  0  0  0  0  0  0
    1.4580    0.0004    3.7283 C   0  0  0  0  0  0  0  0  0  0  0  0
    2.5882    0.0008    4.1652 O   0  0  0  0  0  0  0  0  0  0  0  0
    1.2355   -0.0000    2.3322 N   0  0  0  0  0  0  0  0  0  0  0  0
   -0.0000   -0.0000    1.7647 C   0  0  0  0  0  0  0  0  0  0  0  0
   -1.0957   -0.0001    2.4677 N   0  0  0  0  0  0  0  0  0  0  0  0
   -1.0236    0.0001    3.8376 C   0  0  0  0  0  0  0  0  0  0  0  0
   -2.3318   -0.0005    4.4855 C   0  0  0  0  0  0  0  0  0  0  0  0
   -3.5405   -0.0040    3.8001 C   0  0  0  0  0  0  0  0  0  0  0  0
   -4.6710   -0.0038    4.6514 C   0  0  0  0  0  0  0  0  0  0  0  0
   -4.3178   -0.0001    5.9827 C   0  0  0  0  0  0  0  0  0  0  0  0
   -2.6141    0.0030    6.2138 S   0  0  0  0  0  0  0  0  0  0  0  0
    0.0000    0.0000    0.0000 S   0  0  0  0  0  0  0  0  0  0  0  0
    2.0767    0.0004    1.7604 H   0  0  0  0  0  0  0  0  0  0  0  0
   -3.5760   -0.0068    2.7129 H   0  0  0  0  0  0  0  0  0  0  0  0
   -5.7037   -0.0064    4.3013 H   0  0  0  0  0  0  0  0  0  0  0  0
   -4.9765    0.0009    6.8504 H   0  0  0  0  0  0  0  0  0  0  0  0
   -2.2827    0.0083   -0.3697 Au  0  0  0  0  0  0  0  0  0  0  0  0
  2  1  3  0  0  0  0
  3  2  1  1  0  0  0
  4  5  2  0  0  0  0
  4  3  1  0  0  0  0
  6  4  1  0  0  0  0
  7  6  1  0  0  0  0
  7  8  2  0  0  0  0
  8  9  2  0  0  0  0
  9 10  1  0  0  0  0
  9  3  1  0  0  0  0
 10 14  1  0  0  0  0
 11 10  2  0  0  0  0
 11 12  1  0  0  0  0
 12 13  2  0  0  0  0
 13 14  1  0  0  0  0
 13 19  1  0  0  0  0
 15  7  1  0  0  0  0
 16  6  1  0  0  0  0
 17 11  1  0  0  0  0
 18 12  1  0  0  0  0
 20 15  1  0  0  0  0
M  RAD  1   3   2
M  END
