5848811.xyz
 OpenBabel07262113553D
Cn1c(S)nnc1c1csc(n1)c1cccs1
 25 27  0  0  0  0  0  0  0  0999 V2000
    2.5040    0.0879    1.9884 C   0  0  0  0  0  0  0  0  0  0  0  0
    1.1509   -0.0000    2.5018 N   0  0  0  0  0  0  0  0  0  0  0  0
    0.0000   -0.0000    1.7554 C   0  0  0  0  0  0  0  0  0  0  0  0
    0.0000    0.0000    0.0000 S   0  0  0  0  0  0  0  0  0  0  0  0
   -1.0538    0.0059    2.5544 N   0  0  0  0  0  0  0  0  0  0  0  0
   -0.6083    0.0081    3.8396 N   0  0  0  0  0  0  0  0  0  0  0  0
    0.7065   -0.0025    3.8182 C   0  0  0  0  0  0  0  0  0  0  0  0
    1.5723   -0.0370    4.9971 C   0  0  0  0  0  0  0  0  0  0  0  0
    2.8029   -0.6585    5.0868 C   0  0  0  0  0  0  0  0  0  0  0  0
    3.4545   -0.4829    6.6776 S   0  0  0  0  0  0  0  0  0  0  0  0
    2.0068    0.4247    7.1271 C   0  0  0  0  0  0  0  0  0  0  0  0
    1.1481    0.5640    6.1559 N   0  0  0  0  0  0  0  0  0  0  0  0
    1.8284    0.9623    8.4595 C   0  0  0  0  0  0  0  0  0  0  0  0
    2.6643    0.8864    9.5586 C   0  0  0  0  0  0  0  0  0  0  0  0
    2.1328    1.5459   10.7006 C   0  0  0  0  0  0  0  0  0  0  0  0
    0.9035    2.1118   10.4528 C   0  0  0  0  0  0  0  0  0  0  0  0
    0.3749    1.8514    8.8307 S   0  0  0  0  0  0  0  0  0  0  0  0
    3.1359    0.6219    2.7094 H   0  0  0  0  0  0  0  0  0  0  0  0
    2.9325   -0.9097    1.8009 H   0  0  0  0  0  0  0  0  0  0  0  0
    2.4911    0.6463    1.0421 H   0  0  0  0  0  0  0  0  0  0  0  0
   -2.3045    0.2329   -0.1903 Au  0  0  0  0  0  0  0  0  0  0  0  0
    3.3278   -1.2404    4.3340 H   0  0  0  0  0  0  0  0  0  0  0  0
    3.6268    0.3726    9.5417 H   0  0  0  0  0  0  0  0  0  0  0  0
    2.6384    1.5988   11.6653 H   0  0  0  0  0  0  0  0  0  0  0  0
    0.2753    2.6711   11.1447 H   0  0  0  0  0  0  0  0  0  0  0  0
  1  2  1  0  0  0  0
  1 18  1  0  0  0  0
  2  7  1  0  0  0  0
  3  2  1  0  0  0  0
  3  5  2  0  0  0  0
  4  3  1  0  0  0  0
  5  6  1  0  0  0  0
  7  6  2  0  0  0  0
  7  8  1  0  0  0  0
  8  9  1  0  0  0  0
  8 12  2  0  0  0  0
  9 10  1  0  0  0  0
 10 11  1  0  0  0  0
 11 13  1  0  0  0  0
 12 11  2  0  0  0  0
 13 17  1  0  0  0  0
 13 14  2  0  0  0  0
 14 15  1  0  0  0  0
 15 24  1  0  0  0  0
 16 15  2  0  0  0  0
 16 25  1  0  0  0  0
 17 16  1  0  0  0  0
 19  1  1  0  0  0  0
 20  1  1  0  0  0  0
 21  4  1  0  0  0  0
 22  9  1  0  0  0  0
 23 14  1  0  0  0  0
M  RAD  1   9   2
M  END
