6202021.xyz
 OpenBabel07262113553D
Nc1c(N)ncnc1S
 15 15  0  0  1  0  0  0  0  0999 V2000
   -2.4874    0.0023    1.8093 N   0  0  0  0  0  0  0  0  0  0  0  0
   -1.2372    0.0163    2.4368 C   0  0  2  0  0  0  0  0  0  0  0  0
   -1.1729    0.1168    3.8522 C   0  0  0  0  0  0  0  0  0  0  0  0
   -2.3473    0.1665    4.5692 N   0  0  0  0  0  0  0  0  0  0  0  0
   -0.0152    0.1077    4.5138 N   0  0  0  0  0  0  0  0  0  0  0  0
    1.0944    0.0282    3.7783 C   0  0  0  0  0  0  0  0  0  0  0  0
    1.1619    0.0000    2.4535 N   0  0  0  0  0  0  0  0  0  0  0  0
    0.0000    0.0000    1.7768 C   0  0  0  0  0  0  0  0  0  0  0  0
    0.0000    0.0000    0.0000 S   0  0  0  0  0  0  0  0  0  0  0  0
   -3.1377   -0.6402    2.2621 H   0  0  0  0  0  0  0  0  0  0  0  0
   -2.4330   -0.1988    0.8130 H   0  0  0  0  0  0  0  0  0  0  0  0
   -2.2172    0.3785    5.5533 H   0  0  0  0  0  0  0  0  0  0  0  0
   -3.1101    0.6691    4.1240 H   0  0  0  0  0  0  0  0  0  0  0  0
    2.0461   -0.0064    4.3209 H   0  0  0  0  0  0  0  0  0  0  0  0
    2.1721   -0.7038   -0.3561 Au  0  0  0  0  0  0  0  0  0  0  0  0
  1 10  1  0  0  0  0
  2  1  1  6  0  0  0
  2  3  1  0  0  0  0
  3  5  2  0  0  0  0
  3  4  1  0  0  0  0
  4 12  1  0  0  0  0
  6 14  1  0  0  0  0
  6  5  2  0  0  0  0
  7  6  2  0  0  0  0
  8  2  1  0  0  0  0
  8  7  2  0  0  0  0
  9  8  1  0  0  0  0
 11  1  1  0  0  0  0
 13  4  1  0  0  0  0
 15  9  1  0  0  0  0
M  RAD  1   2   2
M  END
