75914985.xyz
 OpenBabel07262113553D
Cc1ccc(c(c1)O)NC(=O)c1cccnc1S
 30 31  0  0  1  0  0  0  0  0999 V2000
   -7.4642   -1.5345   -2.4516 C   0  0  0  0  0  0  0  0  0  0  0  0
   -6.2668   -1.2893   -1.5696 C   0  0  0  0  0  0  0  0  0  0  0  0
   -6.3280   -0.4354   -0.4642 C   0  0  0  0  0  0  0  0  0  0  0  0
   -5.2139   -0.2092    0.3507 C   0  0  0  0  0  0  0  0  0  0  0  0
   -3.9971   -0.8413    0.0718 C   0  0  0  0  0  0  0  0  0  0  0  0
   -3.9272   -1.7101   -1.0426 C   0  0  0  0  0  0  0  0  0  0  0  0
   -5.0440   -1.9249   -1.8436 C   0  0  0  0  0  0  0  0  0  0  0  0
   -2.7204   -2.3061   -1.2641 O   0  0  0  0  0  0  0  0  0  0  0  0
   -2.8130   -0.6831    0.8079 N   0  0  0  0  0  0  0  0  0  0  0  0
   -2.6223    0.0549    1.9426 C   0  0  0  0  0  0  0  0  0  0  0  0
   -3.5149    0.6486    2.5295 O   0  0  0  0  0  0  0  0  0  0  0  0
   -1.2209    0.0533    2.5061 C   0  0  2  0  0  0  0  0  0  0  0  0
   -1.1353    0.1712    3.8988 C   0  0  0  0  0  0  0  0  0  0  0  0
    0.1023    0.1738    4.5352 C   0  0  0  0  0  0  0  0  0  0  0  0
    1.2388    0.0712    3.7323 C   0  0  0  0  0  0  0  0  0  0  0  0
    1.1868    0.0000    2.4035 N   0  0  0  0  0  0  0  0  0  0  0  0
   -0.0000    0.0000    1.7822 C   0  0  0  0  0  0  0  0  0  0  0  0
    0.0000    0.0000    0.0000 S   0  0  0  0  0  0  0  0  0  0  0  0
   -8.3418   -0.9735   -2.0996 H   0  0  0  0  0  0  0  0  0  0  0  0
   -7.7346   -2.6036   -2.4749 H   0  0  0  0  0  0  0  0  0  0  0  0
   -7.2654   -1.2299   -3.4930 H   0  0  0  0  0  0  0  0  0  0  0  0
   -7.2671    0.0701   -0.2265 H   0  0  0  0  0  0  0  0  0  0  0  0
   -5.2709    0.4522    1.2110 H   0  0  0  0  0  0  0  0  0  0  0  0
   -4.9592   -2.6029   -2.6997 H   0  0  0  0  0  0  0  0  0  0  0  0
   -2.7585   -2.8442   -2.0644 H   0  0  0  0  0  0  0  0  0  0  0  0
   -2.0167   -1.1908    0.4279 H   0  0  0  0  0  0  0  0  0  0  0  0
   -2.0691    0.2620    4.4568 H   0  0  0  0  0  0  0  0  0  0  0  0
    0.1873    0.2523    5.6201 H   0  0  0  0  0  0  0  0  0  0  0  0
    2.2402    0.0540    4.1765 H   0  0  0  0  0  0  0  0  0  0  0  0
    2.2813   -0.1771   -0.3577 Au  0  0  0  0  0  0  0  0  0  0  0  0
  1 19  1  0  0  0  0
  1  2  1  0  0  0  0
  2  3  1  0  0  0  0
  3 22  1  0  0  0  0
  3  4  2  0  0  0  0
  4 23  1  0  0  0  0
  5  4  1  0  0  0  0
  5  9  1  0  0  0  0
  6  5  2  0  0  0  0
  7  2  2  0  0  0  0
  7  6  1  0  0  0  0
  8  6  1  0  0  0  0
  9 10  1  0  0  0  0
 10 11  2  0  0  0  0
 12 10  1  6  0  0  0
 12 13  1  0  0  0  0
 13 27  1  0  0  0  0
 13 14  2  0  0  0  0
 14 28  1  0  0  0  0
 15 29  1  0  0  0  0
 15 14  1  0  0  0  0
 16 15  2  0  0  0  0
 17 16  2  0  0  0  0
 17 12  1  0  0  0  0
 18 17  1  0  0  0  0
 20  1  1  0  0  0  0
 21  1  1  0  0  0  0
 24  7  1  0  0  0  0
 25  8  1  0  0  0  0
 26  9  1  0  0  0  0
 30 18  1  0  0  0  0
M  RAD  1  12   2
M  END
