76051815.xyz
 OpenBabel07262113553D
SCC(C(=O)OC(C)(C)C)N
 26 25  0  0  1  0  0  0  0  0999 V2000
    0.0000    0.0000    0.0000 S   0  0  0  0  0  0  0  0  0  0  0  0
   -0.0000    0.0000    1.8313 C   0  0  0  0  0  0  0  0  0  0  0  0
    1.3669   -0.0000    2.5332 C   0  0  2  0  0  0  0  0  0  0  0  0
    2.2486   -1.1112    1.9546 C   0  0  0  0  0  0  0  0  0  0  0  0
    2.1082   -2.2720    2.2684 O   0  0  0  0  0  0  0  0  0  0  0  0
    3.1538   -0.6342    1.0999 O   0  0  0  0  0  0  0  0  0  0  0  0
    4.0064   -1.5090    0.2828 C   0  0  0  0  0  0  0  0  0  0  0  0
    4.9731   -2.2688    1.1914 C   0  0  0  0  0  0  0  0  0  0  0  0
    3.1378   -2.4468   -0.5567 C   0  0  0  0  0  0  0  0  0  0  0  0
    4.7504   -0.5176   -0.6087 C   0  0  0  0  0  0  0  0  0  0  0  0
    1.1446   -0.1531    3.9633 N   0  0  0  0  0  0  0  0  0  0  0  0
    1.3453    1.7871   -0.5309 Au  0  0  0  0  0  0  0  0  0  0  0  0
   -0.5185   -0.9444    2.0744 H   0  0  0  0  0  0  0  0  0  0  0  0
   -0.6012    0.8270    2.2317 H   0  0  0  0  0  0  0  0  0  0  0  0
    1.8549    0.9682    2.3406 H   0  0  0  0  0  0  0  0  0  0  0  0
    5.5498   -1.5649    1.8113 H   0  0  0  0  0  0  0  0  0  0  0  0
    4.4303   -2.9600    1.8482 H   0  0  0  0  0  0  0  0  0  0  0  0
    5.6819   -2.8458    0.5776 H   0  0  0  0  0  0  0  0  0  0  0  0
    2.3905   -1.8694   -1.1197 H   0  0  0  0  0  0  0  0  0  0  0  0
    3.7757   -2.9924   -1.2689 H   0  0  0  0  0  0  0  0  0  0  0  0
    2.6120   -3.1728    0.0752 H   0  0  0  0  0  0  0  0  0  0  0  0
    5.3206    0.1987    0.0017 H   0  0  0  0  0  0  0  0  0  0  0  0
    5.4495   -1.0503   -1.2703 H   0  0  0  0  0  0  0  0  0  0  0  0
    4.0368    0.0446   -1.2303 H   0  0  0  0  0  0  0  0  0  0  0  0
    2.0067    0.0382    4.4739 H   0  0  0  0  0  0  0  0  0  0  0  0
    0.9205   -1.1333    4.1502 H   0  0  0  0  0  0  0  0  0  0  0  0
  1  2  1  0  0  0  0
  2 13  1  0  0  0  0
  2 14  1  0  0  0  0
  2  3  1  0  0  0  0
  3 15  1  6  0  0  0
  3 11  1  0  0  0  0
  4  5  2  0  0  0  0
  4  3  1  0  0  0  0
  6  4  1  0  0  0  0
  7  6  1  0  0  0  0
  7  8  1  0  0  0  0
  8 16  1  0  0  0  0
  8 17  1  0  0  0  0
  9 21  1  0  0  0  0
  9  7  1  0  0  0  0
 10 22  1  0  0  0  0
 10  7  1  0  0  0  0
 11 26  1  0  0  0  0
 11 25  1  0  0  0  0
 12  1  1  0  0  0  0
 18  8  1  0  0  0  0
 19  9  1  0  0  0  0
 20  9  1  0  0  0  0
 23 10  1  0  0  0  0
 24 10  1  0  0  0  0
M  END
