793599.xyz
 OpenBabel07262113553D
O=Nc1c(N)nc(nc1N)S
 16 16  0  0  0  0  0  0  0  0999 V2000
   -0.5516    0.0003    6.5614 O   0  0  0  0  0  0  0  0  0  0  0  0
    0.4236    0.0002    5.7922 N   0  0  0  0  0  0  0  0  0  0  0  0
    0.2013    0.0001    4.4449 C   0  0  0  0  0  0  0  0  0  0  0  0
    1.3591    0.0000    3.5920 C   0  0  0  0  0  0  0  0  0  0  0  0
    2.5851   -0.0001    4.1321 N   0  0  0  0  0  0  0  0  0  0  0  0
    1.2403   -0.0000    2.2615 N   0  0  0  0  0  0  0  0  0  0  0  0
    0.0000   -0.0000    1.7658 C   0  0  0  0  0  0  0  0  0  0  0  0
   -1.1554    0.0000    2.4356 N   0  0  0  0  0  0  0  0  0  0  0  0
   -1.0736    0.0001    3.7755 C   0  0  0  0  0  0  0  0  0  0  0  0
   -2.1976    0.0002    4.4969 N   0  0  0  0  0  0  0  0  0  0  0  0
    0.0000    0.0000    0.0000 S   0  0  0  0  0  0  0  0  0  0  0  0
    2.6682   -0.0001    5.1420 H   0  0  0  0  0  0  0  0  0  0  0  0
    3.3918   -0.0001    3.5225 H   0  0  0  0  0  0  0  0  0  0  0  0
   -3.0876    0.0003    4.0142 H   0  0  0  0  0  0  0  0  0  0  0  0
   -2.0841    0.0003    5.5138 H   0  0  0  0  0  0  0  0  0  0  0  0
   -2.2553   -0.0016   -0.4661 Au  0  0  0  0  0  0  0  0  0  0  0  0
  2  1  1  0  0  0  0
  3  2  2  0  0  0  0
  4  5  1  0  0  0  0
  4  3  1  0  0  0  0
  5 12  1  0  0  0  0
  6  4  2  0  0  0  0
  7  6  2  0  0  0  0
  7  8  2  0  0  0  0
  8  9  2  0  0  0  0
  9  3  1  0  0  0  0
  9 10  1  0  0  0  0
 10 15  1  0  0  0  0
 11  7  1  0  0  0  0
 13  5  1  0  0  0  0
 14 10  1  0  0  0  0
 16 11  1  0  0  0  0
M  RAD  1   1   2
M  END
