81845123.xyz
 OpenBabel07262113553D
Sc1ccc(c(c1)N)N
 17 17  0  0  0  0  0  0  0  0999 V2000
    0.0000    0.0000    0.0000 S   0  0  0  0  0  0  0  0  0  0  0  0
    0.0000    0.0000    1.7698 C   0  0  0  0  0  0  0  0  0  0  0  0
   -1.2090    0.0622    2.4815 C   0  0  0  0  0  0  0  0  0  0  0  0
   -1.1979    0.1533    3.8717 C   0  0  0  0  0  0  0  0  0  0  0  0
    0.0090    0.1780    4.5856 C   0  0  0  0  0  0  0  0  0  0  0  0
    1.2372    0.0740    3.8738 C   0  0  0  0  0  0  0  0  0  0  0  0
    1.2148    0.0000    2.4836 C   0  0  0  0  0  0  0  0  0  0  0  0
    2.4234    0.1126    4.6244 N   0  0  0  0  0  0  0  0  0  0  0  0
    0.0661    0.2567    5.9710 N   0  0  0  0  0  0  0  0  0  0  0  0
    0.0534   -2.2393   -0.5735 Au  0  0  0  0  0  0  0  0  0  0  0  0
   -2.1532    0.0488    1.9352 H   0  0  0  0  0  0  0  0  0  0  0  0
   -2.1405    0.2255    4.4213 H   0  0  0  0  0  0  0  0  0  0  0  0
    2.1539   -0.0732    1.9302 H   0  0  0  0  0  0  0  0  0  0  0  0
    3.2595   -0.0349    4.0670 H   0  0  0  0  0  0  0  0  0  0  0  0
    2.4109   -0.5359    5.4114 H   0  0  0  0  0  0  0  0  0  0  0  0
   -0.8022    0.5158    6.4268 H   0  0  0  0  0  0  0  0  0  0  0  0
    0.8596    0.7926    6.3173 H   0  0  0  0  0  0  0  0  0  0  0  0
  1  2  1  0  0  0  0
  2  3  2  0  0  0  0
  2  7  1  0  0  0  0
  3  4  1  0  0  0  0
  4 12  1  0  0  0  0
  4  5  2  0  0  0  0
  5  9  1  0  0  0  0
  6  5  1  0  0  0  0
  6  8  1  0  0  0  0
  7  6  2  0  0  0  0
  8 15  1  0  0  0  0
  9 17  1  0  0  0  0
  9 16  1  0  0  0  0
 10  1  1  0  0  0  0
 11  3  1  0  0  0  0
 13  7  1  0  0  0  0
 14  8  1  0  0  0  0
M  END
