829121.xyz
 OpenBabel07262113553D
COc1ccc(cc1)n1nnnc1S
 22 23  0  0  0  0  0  0  0  0999 V2000
   -7.4409   -0.9967    1.9150 C   0  0  0  0  0  0  0  0  0  0  0  0
   -6.5145   -0.2092    1.1996 O   0  0  0  0  0  0  0  0  0  0  0  0
   -5.2165   -0.2120    1.5781 C   0  0  0  0  0  0  0  0  0  0  0  0
   -4.7041   -0.9593    2.6511 C   0  0  0  0  0  0  0  0  0  0  0  0
   -3.3431   -0.9008    2.9547 C   0  0  0  0  0  0  0  0  0  0  0  0
   -2.4902   -0.0926    2.2013 C   0  0  0  0  0  0  0  0  0  0  0  0
   -2.9989    0.6710    1.1416 C   0  0  0  0  0  0  0  0  0  0  0  0
   -4.3501    0.6020    0.8278 C   0  0  0  0  0  0  0  0  0  0  0  0
   -1.1097   -0.0419    2.5343 N   0  0  0  0  0  0  0  0  0  0  0  0
   -0.6955   -0.0728    3.8338 N   0  0  0  0  0  0  0  0  0  0  0  0
    0.5844   -0.0505    3.8120 N   0  0  0  0  0  0  0  0  0  0  0  0
    1.0587   -0.0000    2.5518 N   0  0  0  0  0  0  0  0  0  0  0  0
   -0.0000   -0.0000    1.7491 C   0  0  0  0  0  0  0  0  0  0  0  0
    0.0000    0.0000    0.0000 S   0  0  0  0  0  0  0  0  0  0  0  0
   -7.5029   -0.6924    2.9750 H   0  0  0  0  0  0  0  0  0  0  0  0
   -7.1876   -2.0707    1.8666 H   0  0  0  0  0  0  0  0  0  0  0  0
   -8.4178   -0.8384    1.4401 H   0  0  0  0  0  0  0  0  0  0  0  0
   -5.3515   -1.5956    3.2530 H   0  0  0  0  0  0  0  0  0  0  0  0
   -2.9353   -1.4780    3.7846 H   0  0  0  0  0  0  0  0  0  0  0  0
   -2.3397    1.3260    0.5704 H   0  0  0  0  0  0  0  0  0  0  0  0
   -4.7676    1.1852    0.0058 H   0  0  0  0  0  0  0  0  0  0  0  0
    2.3021   -0.1196   -0.2587 Au  0  0  0  0  0  0  0  0  0  0  0  0
  1 15  1  0  0  0  0
  2  3  1  0  0  0  0
  2  1  1  0  0  0  0
  3  4  2  0  0  0  0
  4  5  1  0  0  0  0
  4 18  1  0  0  0  0
  5 19  1  0  0  0  0
  6  9  1  0  0  0  0
  6  5  2  0  0  0  0
  7  6  1  0  0  0  0
  8  7  2  0  0  0  0
  8  3  1  0  0  0  0
  9 10  1  0  0  0  0
 11 10  2  0  0  0  0
 12 11  1  0  0  0  0
 13  9  1  0  0  0  0
 13 12  2  0  0  0  0
 14 13  1  0  0  0  0
 16  1  1  0  0  0  0
 17  1  1  0  0  0  0
 20  7  1  0  0  0  0
 21  8  1  0  0  0  0
 22 14  1  0  0  0  0
M  END
