8852775.xyz
 OpenBabel07262113553D
Oc1nc(S)nc(c1)c1ccco1
 19 20  0  0  0  0  0  0  0  0999 V2000
    2.5780    0.0001    4.0996 O   0  0  0  0  0  0  0  0  0  0  0  0
    1.3281    0.0001    3.6111 C   0  0  0  0  0  0  0  0  0  0  0  0
    1.2316   -0.0000    2.2896 N   0  0  0  0  0  0  0  0  0  0  0  0
    0.0000   -0.0000    1.7742 C   0  0  0  0  0  0  0  0  0  0  0  0
    0.0000    0.0000    0.0000 S   0  0  0  0  0  0  0  0  0  0  0  0
   -1.1460   -0.0001    2.4538 N   0  0  0  0  0  0  0  0  0  0  0  0
   -1.0445   -0.0000    3.7958 C   0  0  0  0  0  0  0  0  0  0  0  0
    0.1955    0.0002    4.4436 C   0  0  0  0  0  0  0  0  0  0  0  0
   -2.2942   -0.0003    4.5399 C   0  0  0  0  0  0  0  0  0  0  0  0
   -3.6074   -0.0014    4.1361 C   0  0  0  0  0  0  0  0  0  0  0  0
   -4.3951   -0.0013    5.3287 C   0  0  0  0  0  0  0  0  0  0  0  0
   -3.5052   -0.0003    6.3695 C   0  0  0  0  0  0  0  0  0  0  0  0
   -2.2340    0.0003    5.9037 O   0  0  0  0  0  0  0  0  0  0  0  0
    2.5461    0.0003    5.0659 H   0  0  0  0  0  0  0  0  0  0  0  0
   -2.2574    0.0036   -0.4533 Au  0  0  0  0  0  0  0  0  0  0  0  0
    0.2627    0.0003    5.5318 H   0  0  0  0  0  0  0  0  0  0  0  0
   -3.9443   -0.0022    3.1036 H   0  0  0  0  0  0  0  0  0  0  0  0
   -5.4799   -0.0020    5.4059 H   0  0  0  0  0  0  0  0  0  0  0  0
   -3.6201    0.0002    7.4501 H   0  0  0  0  0  0  0  0  0  0  0  0
  1 14  1  0  0  0  0
  2  1  1  0  0  0  0
  2  8  1  0  0  0  0
  3  2  2  0  0  0  0
  4  3  2  0  0  0  0
  4  6  2  0  0  0  0
  5  4  1  0  0  0  0
  6  7  2  0  0  0  0
  7  8  1  0  0  0  0
  7  9  1  0  0  0  0
  8 16  1  0  0  0  0
  9 13  1  0  0  0  0
 10  9  2  0  0  0  0
 10 11  1  0  0  0  0
 11 18  1  0  0  0  0
 11 12  2  0  0  0  0
 12 19  1  0  0  0  0
 13 12  1  0  0  0  0
 15  5  1  0  0  0  0
 17 10  1  0  0  0  0
M  RAD  1   8   2
M  END
