933820.xyz
 OpenBabel07262113553D
Clc1ccc(c(c1)Cl)n1c(S)nnc1c1cccc(c1)Cl
 29 31  0  0  0  0  0  0  0  0999 V2000
    6.6372    0.0025    0.1336 Cl  0  0  0  0  0  0  0  0  0  0  0  0
    5.0359    0.0047    0.8159 C   0  0  0  0  0  0  0  0  0  0  0  0
    4.4483    1.2157    1.1953 C   0  0  0  0  0  0  0  0  0  0  0  0
    3.1667    1.2036    1.7406 C   0  0  0  0  0  0  0  0  0  0  0  0
    2.4755    0.0021    1.9158 C   0  0  0  0  0  0  0  0  0  0  0  0
    3.0807   -1.2049    1.5260 C   0  0  0  0  0  0  0  0  0  0  0  0
    4.3624   -1.2093    0.9748 C   0  0  0  0  0  0  0  0  0  0  0  0
    2.2431   -2.7038    1.7747 Cl  0  0  0  0  0  0  0  0  0  0  0  0
    1.1720    0.0000    2.4782 N   0  0  0  0  0  0  0  0  0  0  0  0
    0.0000    0.0000    1.7525 C   0  0  0  0  0  0  0  0  0  0  0  0
    0.0000    0.0000    0.0000 S   0  0  0  0  0  0  0  0  0  0  0  0
   -1.0302    0.0100    2.5750 N   0  0  0  0  0  0  0  0  0  0  0  0
   -0.5492    0.0119    3.8485 N   0  0  0  0  0  0  0  0  0  0  0  0
    0.7648    0.0014    3.8116 C   0  0  0  0  0  0  0  0  0  0  0  0
    1.6270    0.0155    4.9979 C   0  0  0  0  0  0  0  0  0  0  0  0
    1.0490    0.3985    6.2242 C   0  0  0  0  0  0  0  0  0  0  0  0
    1.8153    0.4162    7.3862 C   0  0  0  0  0  0  0  0  0  0  0  0
    3.1675    0.0594    7.3595 C   0  0  0  0  0  0  0  0  0  0  0  0
    3.7321   -0.3264    6.1434 C   0  0  0  0  0  0  0  0  0  0  0  0
    2.9807   -0.3577    4.9679 C   0  0  0  0  0  0  0  0  0  0  0  0
    5.4173   -0.7905    6.0787 Cl  0  0  0  0  0  0  0  0  0  0  0  0
    4.9923    2.1508    1.0620 H   0  0  0  0  0  0  0  0  0  0  0  0
    2.6834    2.1329    2.0455 H   0  0  0  0  0  0  0  0  0  0  0  0
    4.8292   -2.1483    0.6804 H   0  0  0  0  0  0  0  0  0  0  0  0
   -2.3068   -0.0767   -0.2214 Au  0  0  0  0  0  0  0  0  0  0  0  0
   -0.0054    0.6748    6.2376 H   0  0  0  0  0  0  0  0  0  0  0  0
    1.3582    0.7164    8.3318 H   0  0  0  0  0  0  0  0  0  0  0  0
    3.7774    0.0756    8.2635 H   0  0  0  0  0  0  0  0  0  0  0  0
    3.4638   -0.6891    4.0535 H   0  0  0  0  0  0  0  0  0  0  0  0
  1  2  1  0  0  0  0
  2  7  2  0  0  0  0
  2  3  1  0  0  0  0
  3  4  2  0  0  0  0
  4  5  1  0  0  0  0
  4 23  1  0  0  0  0
  5  9  1  0  0  0  0
  6  8  1  0  0  0  0
  6  5  2  0  0  0  0
  7  6  1  0  0  0  0
  9 14  1  0  0  0  0
 10  9  1  0  0  0  0
 10 12  2  0  0  0  0
 11 10  1  0  0  0  0
 12 13  1  0  0  0  0
 14 13  2  0  0  0  0
 14 15  1  0  0  0  0
 15 16  1  0  0  0  0
 16 26  1  0  0  0  0
 16 17  2  0  0  0  0
 17 27  1  0  0  0  0
 18 17  1  0  0  0  0
 18 28  1  0  0  0  0
 19 18  2  0  0  0  0
 20 15  2  0  0  0  0
 20 19  1  0  0  0  0
 21 19  1  0  0  0  0
 22  3  1  0  0  0  0
 24  7  1  0  0  0  0
 25 11  1  0  0  0  0
 29 20  1  0  0  0  0
M  END
