957753-00-3.xyz
 OpenBabel08132117233D
S[CH2][CH]1c2[cH][cH][cH][cH]c2c2c1[cH][cH][cH][cH]2
 27 29  0  0  0  0  0  0  0  0999 V2000
    4.0014    3.2792    1.6575 C   0  0  0  0  0  0  0  0  0  0  0  0
    4.3625   -2.7195    1.0903 C   0  0  0  0  0  0  0  0  0  0  0  0
    2.7479    3.6019    2.1961 C   0  0  0  0  0  0  0  0  0  0  0  0
    3.1531   -3.2794    1.5227 C   0  0  0  0  0  0  0  0  0  0  0  0
    4.3655    1.9448    1.4476 C   0  0  0  0  0  0  0  0  0  0  0  0
    4.5647   -1.3369    1.1386 C   0  0  0  0  0  0  0  0  0  0  0  0
    1.8366    2.5887    2.5338 C   0  0  0  0  0  0  0  0  0  0  0  0
    2.1246   -2.4639    2.0125 C   0  0  0  0  0  0  0  0  0  0  0  0
    0.0000   -0.0000    1.8363 C   0  0  0  0  0  0  0  0  0  0  0  0
    3.4560    0.9351    1.7765 C   0  0  0  0  0  0  0  0  0  0  0  0
    3.5385   -0.5237    1.6262 C   0  0  0  0  0  0  0  0  0  0  0  0
    2.1934    1.2595    2.3194 C   0  0  0  0  0  0  0  0  0  0  0  0
    2.3221   -1.0885    2.0648 C   0  0  0  0  0  0  0  0  0  0  0  0
    1.3737    0.0000    2.5333 C   0  0  0  0  0  0  0  0  0  0  0  0
    0.0000    0.0000    0.0000 S   0  0  0  0  0  0  0  0  0  0  0  0
    4.7002    4.0786    1.4000 H   0  0  0  0  0  0  0  0  0  0  0  0
    2.4788    4.6484    2.3567 H   0  0  0  0  0  0  0  0  0  0  0  0
    5.3415    1.6992    1.0228 H   0  0  0  0  0  0  0  0  0  0  0  0
    0.8583    2.8451    2.9481 H   0  0  0  0  0  0  0  0  0  0  0  0
    5.1533   -3.3701    0.7093 H   0  0  0  0  0  0  0  0  0  0  0  0
    3.0101   -4.3614    1.4740 H   0  0  0  0  0  0  0  0  0  0  0  0
    5.5074   -0.9033    0.7965 H   0  0  0  0  0  0  0  0  0  0  0  0
    1.1814   -2.9077    2.3415 H   0  0  0  0  0  0  0  0  0  0  0  0
   -0.5309   -0.9343    2.0845 H   0  0  0  0  0  0  0  0  0  0  0  0
   -0.6179    0.8271    2.2162 H   0  0  0  0  0  0  0  0  0  0  0  0
    1.1726   -0.1221    3.6153 H   0  0  0  0  0  0  0  0  0  0  0  0
    1.0018    2.0147   -0.4844 Au  0  0  0  0  0  0  0  0  0  0  0  0
  1  3  1  0  0  0  0
  2  6  2  0  0  0  0
  2  4  1  0  0  0  0
  3 17  1  0  0  0  0
  3  7  2  0  0  0  0
  4  8  2  0  0  0  0
  5  1  2  0  0  0  0
  5 10  1  0  0  0  0
  6 11  1  0  0  0  0
  7 19  1  0  0  0  0
  8 13  1  0  0  0  0
  8 23  1  0  0  0  0
  9 24  1  0  0  0  0
  9 25  1  0  0  0  0
  9 14  1  0  0  0  0
 10 12  2  0  0  0  0
 11 10  1  0  0  0  0
 11 13  2  0  0  0  0
 12 14  1  0  0  0  0
 12  7  1  0  0  0  0
 13 14  1  0  0  0  0
 14 26  1  0  0  0  0
 15  9  1  0  0  0  0
 16  1  1  0  0  0  0
 18  5  1  0  0  0  0
 20  2  1  0  0  0  0
 21  4  1  0  0  0  0
 22  6  1  0  0  0  0
 27 15  1  0  0  0  0
M  END
