96121798.xyz
 OpenBabel07262113553D
COc1ncc(c(n1)S)Cl
 15 15  0  0  1  0  0  0  0  0999 V2000
    3.0371   -0.0007    5.2998 C   0  0  0  0  0  0  0  0  0  0  0  0
    2.7388   -0.0004    3.9092 O   0  0  0  0  0  0  0  0  0  0  0  0
    1.4578   -0.0003    3.5432 C   0  0  0  0  0  0  0  0  0  0  0  0
    0.5127   -0.0005    4.4875 N   0  0  0  0  0  0  0  0  0  0  0  0
   -0.7425   -0.0006    4.0465 C   0  0  0  0  0  0  0  0  0  0  0  0
   -1.0770   -0.0004    2.6924 C   0  0  1  0  0  0  0  0  0  0  0  0
    0.0000    0.0000    1.7690 C   0  0  0  0  0  0  0  0  0  0  0  0
    1.2483    0.0000    2.2304 N   0  0  0  0  0  0  0  0  0  0  0  0
    0.0000    0.0000    0.0000 S   0  0  0  0  0  0  0  0  0  0  0  0
   -2.7759   -0.0009    2.2896 Cl  0  0  0  0  0  0  0  0  0  0  0  0
    4.1321   -0.0005    5.3699 H   0  0  0  0  0  0  0  0  0  0  0  0
    2.6234   -0.8925    5.7948 H   0  0  0  0  0  0  0  0  0  0  0  0
    2.6232    0.8909    5.7952 H   0  0  0  0  0  0  0  0  0  0  0  0
   -1.5417   -0.0008    4.7954 H   0  0  0  0  0  0  0  0  0  0  0  0
   -2.1864    0.0056   -0.7101 Au  0  0  0  0  0  0  0  0  0  0  0  0
  1 11  1  0  0  0  0
  1 12  1  0  0  0  0
  1 13  1  0  0  0  0
  2  1  1  0  0  0  0
  3  2  1  0  0  0  0
  3  4  2  0  0  0  0
  5  4  2  0  0  0  0
  5 14  1  0  0  0  0
  6 10  1  6  0  0  0
  6  5  1  0  0  0  0
  7  8  2  0  0  0  0
  7  6  1  0  0  0  0
  8  3  2  0  0  0  0
  9  7  1  0  0  0  0
 15  9  1  0  0  0  0
M  RAD  1   6   2
M  END
