96322507.xyz
 OpenBabel07262113553D
Brc1ccc(c(c1)S)O
 14 14  0  0  0  0  0  0  0  0999 V2000
    2.9690   -0.1474    4.7206 Br  0  0  0  0  0  0  0  0  0  0  0  0
    1.2821   -0.1270    3.8318 C   0  0  0  0  0  0  0  0  0  0  0  0
    0.1059   -0.2282    4.5782 C   0  0  0  0  0  0  0  0  0  0  0  0
   -1.1237   -0.2031    3.9196 C   0  0  0  0  0  0  0  0  0  0  0  0
   -1.1944   -0.0967    2.5253 C   0  0  0  0  0  0  0  0  0  0  0  0
   -0.0000   -0.0000    1.7715 C   0  0  0  0  0  0  0  0  0  0  0  0
    1.2332   -0.0000    2.4443 C   0  0  0  0  0  0  0  0  0  0  0  0
    0.0000    0.0000    0.0000 S   0  0  0  0  0  0  0  0  0  0  0  0
   -2.3735   -0.0511    1.8661 O   0  0  0  0  0  0  0  0  0  0  0  0
    0.1468   -0.3201    5.6642 H   0  0  0  0  0  0  0  0  0  0  0  0
   -2.0486   -0.2754    4.5002 H   0  0  0  0  0  0  0  0  0  0  0  0
    2.1498    0.0959    1.8619 H   0  0  0  0  0  0  0  0  0  0  0  0
   -1.2036    1.8960   -0.5256 Au  0  0  0  0  0  0  0  0  0  0  0  0
   -3.1010   -0.1225    2.4985 H   0  0  0  0  0  0  0  0  0  0  0  0
  2  3  2  0  0  0  0
  2  1  1  0  0  0  0
  3 10  1  0  0  0  0
  4 11  1  0  0  0  0
  4  3  1  0  0  0  0
  5  4  2  0  0  0  0
  6  7  2  0  0  0  0
  6  5  1  0  0  0  0
  7  2  1  0  0  0  0
  8  6  1  0  0  0  0
  9 14  1  0  0  0  0
  9  5  1  0  0  0  0
 12  7  1  0  0  0  0
 13  8  1  0  0  0  0
M  END
