96345209.xyz
 OpenBabel07262113553D
CC(=C)CNC(=O)CS
 20 19  0  0  0  0  0  0  0  0999 V2000
    6.1557   -0.0815    2.2792 C   0  0  0  0  0  0  0  0  0  0  0  0
    4.7627   -0.2503    1.7354 C   0  0  0  0  0  0  0  0  0  0  0  0
    4.4697   -1.0880    0.7342 C   0  0  0  0  0  0  0  0  0  0  0  0
    3.7227    0.6075    2.4252 C   0  0  0  0  0  0  0  0  0  0  0  0
    2.3920    0.5376    1.8752 N   0  0  0  0  0  0  0  0  0  0  0  0
    1.3483    0.0000    2.5597 C   0  0  0  0  0  0  0  0  0  0  0  0
    1.4190   -0.4202    3.7020 O   0  0  0  0  0  0  0  0  0  0  0  0
   -0.0000   -0.0000    1.8333 C   0  0  0  0  0  0  0  0  0  0  0  0
    0.0000    0.0000    0.0000 S   0  0  0  0  0  0  0  0  0  0  0  0
    6.4956    0.9644    2.1796 H   0  0  0  0  0  0  0  0  0  0  0  0
    6.1871   -0.3195    3.3569 H   0  0  0  0  0  0  0  0  0  0  0  0
    6.8775   -0.7291    1.7619 H   0  0  0  0  0  0  0  0  0  0  0  0
    5.2442   -1.6969    0.2607 H   0  0  0  0  0  0  0  0  0  0  0  0
    3.4472   -1.1957    0.3618 H   0  0  0  0  0  0  0  0  0  0  0  0
    3.6403    0.3043    3.4819 H   0  0  0  0  0  0  0  0  0  0  0  0
    4.0773    1.6561    2.4296 H   0  0  0  0  0  0  0  0  0  0  0  0
    2.2304    0.7953    0.9057 H   0  0  0  0  0  0  0  0  0  0  0  0
   -0.5922   -0.8282    2.2414 H   0  0  0  0  0  0  0  0  0  0  0  0
   -0.5248    0.9353    2.0979 H   0  0  0  0  0  0  0  0  0  0  0  0
    0.9489   -2.0376   -0.4841 Au  0  0  0  0  0  0  0  0  0  0  0  0
  1 11  1  0  0  0  0
  2  1  1  0  0  0  0
  2  4  1  0  0  0  0
  3  2  2  0  0  0  0
  4 16  1  0  0  0  0
  4 15  1  0  0  0  0
  5  4  1  0  0  0  0
  5  6  1  0  0  0  0
  6  7  2  0  0  0  0
  8 19  1  0  0  0  0
  8 18  1  0  0  0  0
  8  6  1  0  0  0  0
  9  8  1  0  0  0  0
 10  1  1  0  0  0  0
 12  1  1  0  0  0  0
 13  3  1  0  0  0  0
 14  3  1  0  0  0  0
 17  5  1  0  0  0  0
 20  9  1  0  0  0  0
M  END
