96397942.xyz
 OpenBabel07262113553D
CNC(=O)c1cnc([nH]1)S
 17 17  0  0  1  0  0  0  0  0999 V2000
   -2.5299   -0.0023    7.1892 C   0  0  0  0  0  0  0  0  0  0  0  0
   -1.5636   -0.0016    6.1141 N   0  0  0  0  0  0  0  0  0  0  0  0
   -1.9292   -0.0007    4.7997 C   0  0  0  0  0  0  0  0  0  0  0  0
   -3.0958   -0.0002    4.4185 O   0  0  0  0  0  0  0  0  0  0  0  0
   -0.8280   -0.0004    3.8187 C   0  0  1  0  0  0  0  0  0  0  0  0
    0.5565   -0.0002    3.8404 C   0  0  0  0  0  0  0  0  0  0  0  0
    1.0565   -0.0000    2.5677 N   0  0  0  0  0  0  0  0  0  0  0  0
    0.0000   -0.0000    1.7607 C   0  0  0  0  0  0  0  0  0  0  0  0
   -1.1560   -0.0002    2.4752 N   0  0  0  0  0  0  0  0  0  0  0  0
    0.0000    0.0000    0.0000 S   0  0  0  0  0  0  0  0  0  0  0  0
   -2.4289    0.8922    7.8272 H   0  0  0  0  0  0  0  0  0  0  0  0
   -2.4301   -0.8985    7.8251 H   0  0  0  0  0  0  0  0  0  0  0  0
   -3.5293   -0.0011    6.7356 H   0  0  0  0  0  0  0  0  0  0  0  0
   -0.5777   -0.0026    6.3416 H   0  0  0  0  0  0  0  0  0  0  0  0
    1.2205   -0.0002    4.7046 H   0  0  0  0  0  0  0  0  0  0  0  0
   -2.1165   -0.0001    2.1469 H   0  0  0  0  0  0  0  0  0  0  0  0
    2.2957    0.0046   -0.2766 Au  0  0  0  0  0  0  0  0  0  0  0  0
  1 12  1  0  0  0  0
  1 11  1  0  0  0  0
  2 14  1  0  0  0  0
  2  1  1  0  0  0  0
  3  2  1  0  0  0  0
  4  3  2  0  0  0  0
  5  6  1  0  0  0  0
  5  3  1  6  0  0  0
  6 15  1  0  0  0  0
  7  6  2  0  0  0  0
  8  9  1  0  0  0  0
  8  7  2  0  0  0  0
  9  5  1  0  0  0  0
 10  8  1  0  0  0  0
 13  1  1  0  0  0  0
 16  9  1  0  0  0  0
 17 10  1  0  0  0  0
M  RAD  1   5   2
M  END
