96407744.xyz
 OpenBabel07262113553D
Oc1ccc(c(c1)F)C(S)C
 20 20  0  0  1  0  0  0  0  0999 V2000
    5.3630    0.0416    3.7880 O   0  0  0  0  0  0  0  0  0  0  0  0
    4.0831    0.0648    3.3416 C   0  0  0  0  0  0  0  0  0  0  0  0
    3.3638   -1.1385    3.3385 C   0  0  0  0  0  0  0  0  0  0  0  0
    2.0465   -1.1557    2.8857 C   0  0  0  0  0  0  0  0  0  0  0  0
    1.3993   -0.0000    2.4227 C   0  0  0  0  0  0  0  0  0  0  0  0
    2.1482    1.1809    2.4479 C   0  0  0  0  0  0  0  0  0  0  0  0
    3.4640    1.2393    2.8947 C   0  0  0  0  0  0  0  0  0  0  0  0
    1.5767    2.3194    2.0230 F   0  0  0  0  0  0  0  0  0  0  0  0
    0.0000    0.0000    1.8619 C   0  0  1  0  0  0  0  0  0  0  0  0
    0.0000    0.0000    0.0000 S   0  0  0  0  0  0  0  0  0  0  0  0
   -0.9269   -1.0634    2.4410 C   0  0  0  0  0  0  0  0  0  0  0  0
    5.7419    0.9285    3.7347 H   0  0  0  0  0  0  0  0  0  0  0  0
    3.8532   -2.0452    3.6966 H   0  0  0  0  0  0  0  0  0  0  0  0
    1.5038   -2.1023    2.8899 H   0  0  0  0  0  0  0  0  0  0  0  0
    3.9853    2.1994    2.8856 H   0  0  0  0  0  0  0  0  0  0  0  0
   -0.4382    0.9961    2.0426 H   0  0  0  0  0  0  0  0  0  0  0  0
    1.0860   -1.9608   -0.4977 Au  0  0  0  0  0  0  0  0  0  0  0  0
   -0.5859   -2.0765    2.1787 H   0  0  0  0  0  0  0  0  0  0  0  0
   -0.9705   -0.9838    3.5397 H   0  0  0  0  0  0  0  0  0  0  0  0
   -1.9405   -0.9443    2.0341 H   0  0  0  0  0  0  0  0  0  0  0  0
  2  1  1  0  0  0  0
  3  2  1  0  0  0  0
  3 13  1  0  0  0  0
  4 14  1  0  0  0  0
  4  3  2  0  0  0  0
  5  6  2  0  0  0  0
  5  4  1  0  0  0  0
  6  7  1  0  0  0  0
  7  2  2  0  0  0  0
  8  6  1  0  0  0  0
  9 16  1  1  0  0  0
  9  5  1  0  0  0  0
  9 11  1  0  0  0  0
 10  9  1  0  0  0  0
 11 19  1  0  0  0  0
 12  1  1  0  0  0  0
 15  7  1  0  0  0  0
 17 10  1  0  0  0  0
 18 11  1  0  0  0  0
 20 11  1  0  0  0  0
M  END
