96533917.xyz
 OpenBabel07262113553D
Sc1ccc(cc1N)S(=O)(=O)O
 19 19  0  0  0  0  0  0  0  0999 V2000
    0.0000    0.0000    0.0000 S   0  0  0  0  0  0  0  0  0  0  0  0
   -0.0000   -0.0000    1.7679 C   0  0  0  0  0  0  0  0  0  0  0  0
   -1.2201    0.0767    2.4604 C   0  0  0  0  0  0  0  0  0  0  0  0
   -1.2628    0.1724    3.8472 C   0  0  0  0  0  0  0  0  0  0  0  0
   -0.0452    0.1676    4.5379 C   0  0  0  0  0  0  0  0  0  0  0  0
    1.1835    0.0885    3.8952 C   0  0  0  0  0  0  0  0  0  0  0  0
    1.2321   -0.0000    2.4898 C   0  0  0  0  0  0  0  0  0  0  0  0
    2.4221   -0.1340    1.8310 N   0  0  0  0  0  0  0  0  0  0  0  0
   -0.0594    0.2440    6.3202 S   0  0  0  0  0  0  0  0  0  0  0  0
    1.2117    0.7754    6.7800 O   0  0  0  0  0  0  0  0  0  0  0  0
   -1.3460    0.7755    6.7629 O   0  0  0  0  0  0  0  0  0  0  0  0
   -0.0378   -1.3488    6.7244 O   0  0  0  0  0  0  0  0  0  0  0  0
    0.7292   -2.1471   -0.4944 Au  0  0  0  0  0  0  0  0  0  0  0  0
   -2.1442    0.0713    1.8795 H   0  0  0  0  0  0  0  0  0  0  0  0
   -2.2045    0.2634    4.3881 H   0  0  0  0  0  0  0  0  0  0  0  0
    2.1029    0.1083    4.4828 H   0  0  0  0  0  0  0  0  0  0  0  0
    3.2767    0.0686    2.3337 H   0  0  0  0  0  0  0  0  0  0  0  0
    2.4148    0.0704    0.8362 H   0  0  0  0  0  0  0  0  0  0  0  0
   -0.9577   -1.6231    6.8784 H   0  0  0  0  0  0  0  0  0  0  0  0
  1  2  1  0  0  0  0
  2  3  2  0  0  0  0
  2  7  1  0  0  0  0
  3  4  1  0  0  0  0
  4 15  1  0  0  0  0
  4  5  2  0  0  0  0
  5  9  1  0  0  0  0
  6 16  1  0  0  0  0
  6  5  1  0  0  0  0
  7  6  2  0  0  0  0
  8 17  1  0  0  0  0
  8  7  1  0  0  0  0
  9 12  1  0  0  0  0
  9 11  1  0  0  0  0
  9 10  1  0  0  0  0
 12 19  1  0  0  0  0
 13  1  1  0  0  0  0
 14  3  1  0  0  0  0
 18  8  1  0  0  0  0
M  RAD  2  10   2  11   2
M  END
