96607498.xyz
 OpenBabel07262113553D
Sc1cc(cc(c1)C(=O)O)C(=O)O
 19 19  0  0  0  0  0  0  0  0999 V2000
    0.0000    0.0000    0.0000 S   0  0  0  0  0  0  0  0  0  0  0  0
    0.0000   -0.0000    1.7852 C   0  0  0  0  0  0  0  0  0  0  0  0
    1.2069   -0.0000    2.4983 C   0  0  0  0  0  0  0  0  0  0  0  0
    1.1956    0.0612    3.8982 C   0  0  0  0  0  0  0  0  0  0  0  0
   -0.0181    0.1279    4.5902 C   0  0  0  0  0  0  0  0  0  0  0  0
   -1.2274    0.1586    3.8861 C   0  0  0  0  0  0  0  0  0  0  0  0
   -1.2126    0.0834    2.4874 C   0  0  0  0  0  0  0  0  0  0  0  0
   -2.5020    0.2218    4.6843 C   0  0  0  0  0  0  0  0  0  0  0  0
   -2.5598   -0.0797    5.8454 O   0  0  0  0  0  0  0  0  0  0  0  0
   -3.6031    0.6429    4.0245 O   0  0  0  0  0  0  0  0  0  0  0  0
    2.4584    0.0527    4.6965 C   0  0  0  0  0  0  0  0  0  0  0  0
    2.5045    0.1095    5.9010 O   0  0  0  0  0  0  0  0  0  0  0  0
    3.5612   -0.0265    3.9259 O   0  0  0  0  0  0  0  0  0  0  0  0
   -0.0086   -2.2478   -0.5004 Au  0  0  0  0  0  0  0  0  0  0  0  0
    2.1532   -0.0551    1.9611 H   0  0  0  0  0  0  0  0  0  0  0  0
   -0.0239    0.1590    5.6803 H   0  0  0  0  0  0  0  0  0  0  0  0
   -2.1387    0.0553    1.9079 H   0  0  0  0  0  0  0  0  0  0  0  0
   -3.3697    0.9789    3.1480 H   0  0  0  0  0  0  0  0  0  0  0  0
    4.3236   -0.0244    4.5290 H   0  0  0  0  0  0  0  0  0  0  0  0
  1  2  1  0  0  0  0
  2  7  2  0  0  0  0
  2  3  1  0  0  0  0
  3  4  2  0  0  0  0
  4  5  1  0  0  0  0
  4 11  1  0  0  0  0
  5 16  1  0  0  0  0
  6  5  2  0  0  0  0
  6  8  1  0  0  0  0
  7  6  1  0  0  0  0
  8  9  2  0  0  0  0
 10  8  1  0  0  0  0
 11 12  2  0  0  0  0
 13 19  1  0  0  0  0
 13 11  1  0  0  0  0
 14  1  1  0  0  0  0
 15  3  1  0  0  0  0
 17  7  1  0  0  0  0
 18 10  1  0  0  0  0
M  END
