97085642.xyz
 OpenBabel07262113563D
SCCN1CCCCC1CC
 30 30  0  0  1  0  0  0  0  0999 V2000
    0.0000    0.0000    0.0000 S   0  0  0  0  0  0  0  0  0  0  0  0
   -0.0000    0.0000    1.8416 C   0  0  0  0  0  0  0  0  0  0  0  0
    1.3778    0.0000    2.5240 C   0  0  0  0  0  0  0  0  0  0  0  0
    2.2208    1.1687    2.2952 N   0  0  0  0  0  0  0  0  0  0  0  0
    3.6268    0.7836    2.1181 C   0  0  0  0  0  0  0  0  0  0  0  0
    4.5561    2.0012    1.9627 C   0  0  0  0  0  0  0  0  0  0  0  0
    3.7759    3.2122    1.4667 C   0  0  0  0  0  0  0  0  0  0  0  0
    2.6845    3.5713    2.4829 C   0  0  0  0  0  0  0  0  0  0  0  0
    2.0894    2.3264    3.1930 C   0  0  1  0  0  0  0  0  0  0  0  0
    0.6557    2.6090    3.6510 C   0  0  0  0  0  0  0  0  0  0  0  0
    0.5601    3.7777    4.6325 C   0  0  0  0  0  0  0  0  0  0  0  0
    1.4344    1.7925   -0.3027 Au  0  0  0  0  0  0  0  0  0  0  0  0
   -0.6349    0.8175    2.2040 H   0  0  0  0  0  0  0  0  0  0  0  0
   -0.5036   -0.9433    2.1114 H   0  0  0  0  0  0  0  0  0  0  0  0
    1.2317   -0.1783    3.6100 H   0  0  0  0  0  0  0  0  0  0  0  0
    1.9225   -0.8759    2.1419 H   0  0  0  0  0  0  0  0  0  0  0  0
    3.9761    0.1605    2.9707 H   0  0  0  0  0  0  0  0  0  0  0  0
    3.6805    0.1523    1.2172 H   0  0  0  0  0  0  0  0  0  0  0  0
    5.0117    2.2589    2.9337 H   0  0  0  0  0  0  0  0  0  0  0  0
    5.3878    1.7483    1.2876 H   0  0  0  0  0  0  0  0  0  0  0  0
    4.4382    4.0719    1.2809 H   0  0  0  0  0  0  0  0  0  0  0  0
    3.3212    2.9729    0.4776 H   0  0  0  0  0  0  0  0  0  0  0  0
    3.1029    4.2475    3.2450 H   0  0  0  0  0  0  0  0  0  0  0  0
    1.8734    4.1235    1.9804 H   0  0  0  0  0  0  0  0  0  0  0  0
    2.6838    2.1296    4.1161 H   0  0  0  0  0  0  0  0  0  0  0  0
    0.2364    1.7141    4.1344 H   0  0  0  0  0  0  0  0  0  0  0  0
    0.0341    2.8131    2.7626 H   0  0  0  0  0  0  0  0  0  0  0  0
    1.2026    3.6124    5.5135 H   0  0  0  0  0  0  0  0  0  0  0  0
    0.8629    4.7315    4.1744 H   0  0  0  0  0  0  0  0  0  0  0  0
   -0.4730    3.8998    4.9920 H   0  0  0  0  0  0  0  0  0  0  0  0
  1  2  1  0  0  0  0
  2 14  1  0  0  0  0
  2 13  1  0  0  0  0
  2  3  1  0  0  0  0
  3 15  1  0  0  0  0
  4  3  1  0  0  0  0
  4  9  1  0  0  0  0
  5  4  1  0  0  0  0
  5 17  1  0  0  0  0
  6  5  1  0  0  0  0
  6 19  1  0  0  0  0
  7  6  1  0  0  0  0
  7  8  1  0  0  0  0
  8  9  1  0  0  0  0
  8 23  1  0  0  0  0
  9 10  1  0  0  0  0
  9 25  1  1  0  0  0
 10 26  1  0  0  0  0
 10 11  1  0  0  0  0
 11 30  1  0  0  0  0
 11 28  1  0  0  0  0
 12  1  1  0  0  0  0
 16  3  1  0  0  0  0
 18  5  1  0  0  0  0
 20  6  1  0  0  0  0
 21  7  1  0  0  0  0
 22  7  1  0  0  0  0
 24  8  1  0  0  0  0
 27 10  1  0  0  0  0
 29 11  1  0  0  0  0
M  END
