97098447.xyz
 OpenBabel07262113563D
COc1cc(Cl)c(cc1Cl)S
 17 17  0  0  0  0  0  0  0  0999 V2000
   -0.8513    0.3707    6.7591 C   0  0  0  0  0  0  0  0  0  0  0  0
    0.2941    0.2829    5.9371 O   0  0  0  0  0  0  0  0  0  0  0  0
    0.1434    0.1912    4.6053 C   0  0  0  0  0  0  0  0  0  0  0  0
   -1.0953    0.1711    3.9509 C   0  0  0  0  0  0  0  0  0  0  0  0
   -1.1641    0.0849    2.5578 C   0  0  0  0  0  0  0  0  0  0  0  0
   -2.7442    0.0417    1.8306 Cl  0  0  0  0  0  0  0  0  0  0  0  0
   -0.0000    0.0000    1.7692 C   0  0  0  0  0  0  0  0  0  0  0  0
    1.2391    0.0000    2.4422 C   0  0  0  0  0  0  0  0  0  0  0  0
    1.3186    0.1041    3.8229 C   0  0  0  0  0  0  0  0  0  0  0  0
    2.8680    0.1162    4.6144 Cl  0  0  0  0  0  0  0  0  0  0  0  0
    0.0000    0.0000    0.0000 S   0  0  0  0  0  0  0  0  0  0  0  0
   -0.4856    0.4384    7.7914 H   0  0  0  0  0  0  0  0  0  0  0  0
   -1.4490    1.2693    6.5268 H   0  0  0  0  0  0  0  0  0  0  0  0
   -1.4914   -0.5232    6.6595 H   0  0  0  0  0  0  0  0  0  0  0  0
   -2.0251    0.2269    4.5130 H   0  0  0  0  0  0  0  0  0  0  0  0
    2.1565   -0.0806    1.8590 H   0  0  0  0  0  0  0  0  0  0  0  0
   -0.8838   -2.0688   -0.5237 Au  0  0  0  0  0  0  0  0  0  0  0  0
  1 12  1  0  0  0  0
  2  1  1  0  0  0  0
  3  2  1  0  0  0  0
  4 15  1  0  0  0  0
  4  3  1  0  0  0  0
  5  4  2  0  0  0  0
  6  5  1  0  0  0  0
  7  8  2  0  0  0  0
  7  5  1  0  0  0  0
  8  9  1  0  0  0  0
  9  3  2  0  0  0  0
  9 10  1  0  0  0  0
 11  7  1  0  0  0  0
 13  1  1  0  0  0  0
 14  1  1  0  0  0  0
 16  8  1  0  0  0  0
 17 11  1  0  0  0  0
M  END
