97159025.xyz
 OpenBabel07262113563D
SCc1noc(n1)C
 14 14  0  0  0  0  0  0  0  0999 V2000
    0.0000    0.0000    0.0000 S   0  0  0  0  0  0  0  0  0  0  0  0
   -0.0000   -0.0000    1.8450 C   0  0  0  0  0  0  0  0  0  0  0  0
    1.3610   -0.0000    2.4506 C   0  0  0  0  0  0  0  0  0  0  0  0
    1.8489   -1.0326    3.0884 N   0  0  0  0  0  0  0  0  0  0  0  0
    3.1268   -0.6145    3.4593 O   0  0  0  0  0  0  0  0  0  0  0  0
    3.2806    0.6384    3.0061 C   0  0  0  0  0  0  0  0  0  0  0  0
    2.2260    1.0717    2.3807 N   0  0  0  0  0  0  0  0  0  0  0  0
    4.5706    1.3292    3.2566 C   0  0  0  0  0  0  0  0  0  0  0  0
    1.1377    1.9511   -0.4355 Au  0  0  0  0  0  0  0  0  0  0  0  0
   -0.5149   -0.9300    2.1274 H   0  0  0  0  0  0  0  0  0  0  0  0
   -0.5816    0.8528    2.2222 H   0  0  0  0  0  0  0  0  0  0  0  0
    5.3847    0.8313    2.7063 H   0  0  0  0  0  0  0  0  0  0  0  0
    4.4956    2.3714    2.9244 H   0  0  0  0  0  0  0  0  0  0  0  0
    4.8246    1.2988    4.3268 H   0  0  0  0  0  0  0  0  0  0  0  0
  1  2  1  0  0  0  0
  2 10  1  0  0  0  0
  2 11  1  0  0  0  0
  2  3  1  0  0  0  0
  3  4  2  0  0  0  0
  4  5  1  0  0  0  0
  6  8  1  0  0  0  0
  6  5  1  0  0  0  0
  7  3  2  0  0  0  0
  7  6  2  0  0  0  0
  8 14  1  0  0  0  0
  9  1  1  0  0  0  0
 12  8  1  0  0  0  0
 13  8  1  0  0  0  0
M  END
