97179950.xyz
 OpenBabel07262113563D
O=C(C(S)C)Nc1cccc(c1)I
 23 23  0  0  1  0  0  0  0  0999 V2000
   -1.1479   -1.0223    3.6686 O   0  0  0  0  0  0  0  0  0  0  0  0
   -0.7447   -1.1605    2.5275 C   0  0  0  0  0  0  0  0  0  0  0  0
    0.0000    0.0000    1.8483 C   0  0  2  0  0  0  0  0  0  0  0  0
    0.0000    0.0000    0.0000 S   0  0  0  0  0  0  0  0  0  0  0  0
    1.4681   -0.0000    2.2979 C   0  0  0  0  0  0  0  0  0  0  0  0
   -0.8355   -2.3065    1.7887 N   0  0  0  0  0  0  0  0  0  0  0  0
   -1.4135   -3.5362    2.1335 C   0  0  0  0  0  0  0  0  0  0  0  0
   -1.4262   -4.5467    1.1558 C   0  0  0  0  0  0  0  0  0  0  0  0
   -1.9866   -5.7894    1.4394 C   0  0  0  0  0  0  0  0  0  0  0  0
   -2.5456   -6.0540    2.6934 C   0  0  0  0  0  0  0  0  0  0  0  0
   -2.5262   -5.0396    3.6532 C   0  0  0  0  0  0  0  0  0  0  0  0
   -1.9713   -3.7842    3.4006 C   0  0  0  0  0  0  0  0  0  0  0  0
   -3.3705   -5.4134    5.5692 I   0  0  0  0  0  0  0  0  0  0  0  0
   -0.4888    0.9135    2.2097 H   0  0  0  0  0  0  0  0  0  0  0  0
   -2.2337    0.1786   -0.5066 Au  0  0  0  0  0  0  0  0  0  0  0  0
    1.5017    0.0063    3.3979 H   0  0  0  0  0  0  0  0  0  0  0  0
    1.9929   -0.8988    1.9380 H   0  0  0  0  0  0  0  0  0  0  0  0
    1.9937    0.8895    1.9219 H   0  0  0  0  0  0  0  0  0  0  0  0
   -0.4821   -2.2216    0.8371 H   0  0  0  0  0  0  0  0  0  0  0  0
   -0.9924   -4.3507    0.1718 H   0  0  0  0  0  0  0  0  0  0  0  0
   -1.9903   -6.5678    0.6726 H   0  0  0  0  0  0  0  0  0  0  0  0
   -2.9845   -7.0273    2.9143 H   0  0  0  0  0  0  0  0  0  0  0  0
   -1.9608   -2.9970    4.1494 H   0  0  0  0  0  0  0  0  0  0  0  0
  2  1  2  0  0  0  0
  3 14  1  1  0  0  0
  3  5  1  0  0  0  0
  3  2  1  0  0  0  0
  4  3  1  0  0  0  0
  5 16  1  0  0  0  0
  6  7  1  0  0  0  0
  6  2  1  0  0  0  0
  7 12  2  0  0  0  0
  8  9  2  0  0  0  0
  8  7  1  0  0  0  0
  9 10  1  0  0  0  0
 10 22  1  0  0  0  0
 10 11  2  0  0  0  0
 11 13  1  0  0  0  0
 12 11  1  0  0  0  0
 12 23  1  0  0  0  0
 15  4  1  0  0  0  0
 17  5  1  0  0  0  0
 18  5  1  0  0  0  0
 19  6  1  0  0  0  0
 20  8  1  0  0  0  0
 21  9  1  0  0  0  0
M  END
