97196969.xyz
 OpenBabel07262113563D
CC1SCC2(C1)N=C(NC2=O)S
 22 23  0  0  1  0  0  0  0  0999 V2000
   -3.0549    1.9077    6.0573 C   0  0  0  0  0  0  0  0  0  0  0  0
   -2.4901    1.0185    4.9583 C   0  0  2  0  0  0  0  0  0  0  0  0
   -2.6537   -0.7819    5.3857 S   0  0  0  0  0  0  0  0  0  0  0  0
   -1.0004   -1.2227    4.7086 C   0  0  0  0  0  0  0  0  0  0  0  0
   -0.5041   -0.0016    3.9141 C   0  0  2  0  0  0  0  0  0  0  0  0
   -1.0010    1.2266    4.6903 C   0  0  0  0  0  0  0  0  0  0  0  0
   -1.0160   -0.0022    2.5407 N   0  0  0  0  0  0  0  0  0  0  0  0
   -0.0000   -0.0000    1.7566 C   0  0  0  0  0  0  0  0  0  0  0  0
    1.2397   -0.0000    2.4069 N   0  0  0  0  0  0  0  0  0  0  0  0
    1.0329   -0.0098    3.7787 C   0  0  0  0  0  0  0  0  0  0  0  0
    1.8731   -0.0203    4.6436 O   0  0  0  0  0  0  0  0  0  0  0  0
    0.0000    0.0000    0.0000 S   0  0  0  0  0  0  0  0  0  0  0  0
   -4.1222    1.7022    6.2316 H   0  0  0  0  0  0  0  0  0  0  0  0
   -2.5177    1.7473    7.0050 H   0  0  0  0  0  0  0  0  0  0  0  0
   -2.9610    2.9698    5.7752 H   0  0  0  0  0  0  0  0  0  0  0  0
   -3.0444    1.1759    4.0210 H   0  0  0  0  0  0  0  0  0  0  0  0
   -0.2991   -1.4328    5.5294 H   0  0  0  0  0  0  0  0  0  0  0  0
   -1.0794   -2.1058    4.0602 H   0  0  0  0  0  0  0  0  0  0  0  0
   -0.8200    2.1532    4.1229 H   0  0  0  0  0  0  0  0  0  0  0  0
   -0.4411    1.2843    5.6382 H   0  0  0  0  0  0  0  0  0  0  0  0
    2.1514   -0.0101    1.9641 H   0  0  0  0  0  0  0  0  0  0  0  0
   -2.3051   -0.0833   -0.2488 Au  0  0  0  0  0  0  0  0  0  0  0  0
  1 13  1  0  0  0  0
  1 14  1  0  0  0  0
  2 16  1  6  0  0  0
  2  3  1  0  0  0  0
  2  1  1  0  0  0  0
  4  3  1  0  0  0  0
  4 17  1  0  0  0  0
  5  7  1  6  0  0  0
  5  6  1  0  0  0  0
  5  4  1  0  0  0  0
  6  2  1  0  0  0  0
  6 20  1  0  0  0  0
  8  9  1  0  0  0  0
  8  7  2  0  0  0  0
  9 10  1  0  0  0  0
 10  5  1  0  0  0  0
 10 11  2  0  0  0  0
 12  8  1  0  0  0  0
 15  1  1  0  0  0  0
 18  4  1  0  0  0  0
 19  6  1  0  0  0  0
 21  9  1  0  0  0  0
 22 12  1  0  0  0  0
M  END
