97190680.xyz
 OpenBabel07262113563D
COC(=O)c1cc(S)c(cc1F)Br
 19 19  0  0  0  0  0  0  0  0999 V2000
   -5.0097    0.4087    4.0907 C   0  0  0  0  0  0  0  0  0  0  0  0
   -3.6869    0.3076    3.5678 O   0  0  0  0  0  0  0  0  0  0  0  0
   -2.6914    0.3250    4.4774 C   0  0  0  0  0  0  0  0  0  0  0  0
   -2.8860    0.4199    5.6639 O   0  0  0  0  0  0  0  0  0  0  0  0
   -1.3548    0.2130    3.8215 C   0  0  0  0  0  0  0  0  0  0  0  0
   -1.2369    0.0964    2.4299 C   0  0  0  0  0  0  0  0  0  0  0  0
    0.0000   -0.0000    1.7736 C   0  0  0  0  0  0  0  0  0  0  0  0
    0.0000    0.0000    0.0000 S   0  0  0  0  0  0  0  0  0  0  0  0
    1.1653   -0.0000    2.5755 C   0  0  0  0  0  0  0  0  0  0  0  0
    1.0795    0.0949    3.9637 C   0  0  0  0  0  0  0  0  0  0  0  0
   -0.1672    0.2075    4.5748 C   0  0  0  0  0  0  0  0  0  0  0  0
   -0.1923    0.3048    5.8979 F   0  0  0  0  0  0  0  0  0  0  0  0
    2.8905   -0.1620    1.8114 Br  0  0  0  0  0  0  0  0  0  0  0  0
   -5.6827    0.3791    3.2255 H   0  0  0  0  0  0  0  0  0  0  0  0
   -5.1386    1.3502    4.6457 H   0  0  0  0  0  0  0  0  0  0  0  0
   -5.2243   -0.4273    4.7733 H   0  0  0  0  0  0  0  0  0  0  0  0
   -2.1463    0.0821    1.8315 H   0  0  0  0  0  0  0  0  0  0  0  0
    0.7848   -2.1106   -0.5130 Au  0  0  0  0  0  0  0  0  0  0  0  0
    1.9726    0.0900    4.5882 H   0  0  0  0  0  0  0  0  0  0  0  0
  1 15  1  0  0  0  0
  1 16  1  0  0  0  0
  2  1  1  0  0  0  0
  2  3  1  0  0  0  0
  3  4  2  0  0  0  0
  5  3  1  0  0  0  0
  5 11  2  0  0  0  0
  6  5  1  0  0  0  0
  7  6  2  0  0  0  0
  7  9  1  0  0  0  0
  8  7  1  0  0  0  0
  9 10  2  0  0  0  0
 10 11  1  0  0  0  0
 10 19  1  0  0  0  0
 11 12  1  0  0  0  0
 13  9  1  0  0  0  0
 14  1  1  0  0  0  0
 17  6  1  0  0  0  0
 18  8  1  0  0  0  0
M  END
