97190945.xyz
 OpenBabel07262113563D
FC(C1(CC1)n1ccnc1S)(F)F
 20 21  0  0  0  0  0  0  0  0999 V2000
   -4.2889   -1.4770    1.3721 F   0  0  0  0  0  0  0  0  0  0  0  0
   -3.0352   -1.4653    1.8622 C   0  0  0  0  0  0  0  0  0  0  0  0
   -2.5140   -0.0502    2.0021 C   0  0  0  0  0  0  0  0  0  0  0  0
   -2.9764    0.9986    1.0239 C   0  0  0  0  0  0  0  0  0  0  0  0
   -3.4835    1.0211    2.4361 C   0  0  0  0  0  0  0  0  0  0  0  0
   -1.1736    0.0047    2.4959 N   0  0  0  0  0  0  0  0  0  0  0  0
   -0.8075   -0.0186    3.8403 C   0  0  0  0  0  0  0  0  0  0  0  0
    0.5623   -0.0115    3.8469 C   0  0  0  0  0  0  0  0  0  0  0  0
    1.0507    0.0000    2.5585 N   0  0  0  0  0  0  0  0  0  0  0  0
   -0.0000    0.0000    1.7655 C   0  0  0  0  0  0  0  0  0  0  0  0
    0.0000    0.0000    0.0000 S   0  0  0  0  0  0  0  0  0  0  0  0
   -3.0617   -2.0882    3.0532 F   0  0  0  0  0  0  0  0  0  0  0  0
   -2.2682   -2.1952    1.0437 F   0  0  0  0  0  0  0  0  0  0  0  0
   -2.2282    1.7330    0.7218 H   0  0  0  0  0  0  0  0  0  0  0  0
   -3.6542    0.6740    0.2323 H   0  0  0  0  0  0  0  0  0  0  0  0
   -4.5153    0.7168    2.6234 H   0  0  0  0  0  0  0  0  0  0  0  0
   -3.0863    1.7774    3.1162 H   0  0  0  0  0  0  0  0  0  0  0  0
   -1.5544   -0.0483    4.6280 H   0  0  0  0  0  0  0  0  0  0  0  0
    1.2298   -0.0114    4.7070 H   0  0  0  0  0  0  0  0  0  0  0  0
    2.2645    0.3847   -0.2643 Au  0  0  0  0  0  0  0  0  0  0  0  0
  1  2  1  0  0  0  0
  2  3  1  0  0  0  0
  2 12  1  0  0  0  0
  3  5  1  0  0  0  0
  3  6  1  0  0  0  0
  4  3  1  0  0  0  0
  4  5  1  0  0  0  0
  5 16  1  0  0  0  0
  5 17  1  0  0  0  0
  6  7  1  0  0  0  0
  7  8  1  0  0  0  0
  7 18  1  0  0  0  0
  8 19  1  0  0  0  0
  9  8  2  0  0  0  0
 10  6  1  0  0  0  0
 10  9  2  0  0  0  0
 11 10  1  0  0  0  0
 13  2  1  0  0  0  0
 14  4  1  0  0  0  0
 15  4  1  0  0  0  0
 20 11  1  0  0  0  0
M  RAD  1   7   2
M  END
