97190670.xyz
 OpenBabel07262113563D
Cc1cnc(n1CC1CC1)S
 23 24  0  0  1  0  0  0  0  0999 V2000
   -1.7340   -0.0878    4.9655 C   0  0  0  0  0  0  0  0  0  0  0  0
   -0.7859   -0.0585    3.8168 C   0  0  2  0  0  0  0  0  0  0  0  0
    0.6060   -0.0410    3.7940 C   0  0  0  0  0  0  0  0  0  0  0  0
    1.0714   -0.0000    2.5204 N   0  0  0  0  0  0  0  0  0  0  0  0
    0.0000    0.0000    1.7388 C   0  0  0  0  0  0  0  0  0  0  0  0
   -1.1655   -0.0304    2.4963 N   0  0  0  0  0  0  0  0  0  0  0  0
   -2.5263   -0.0444    1.9726 C   0  0  0  0  0  0  0  0  0  0  0  0
   -2.9649   -1.4043    1.4794 C   0  0  0  0  0  0  0  0  0  0  0  0
   -3.5227   -2.4282    2.4320 C   0  0  0  0  0  0  0  0  0  0  0  0
   -4.4312   -1.7423    1.4424 C   0  0  0  0  0  0  0  0  0  0  0  0
    0.0000    0.0000    0.0000 S   0  0  0  0  0  0  0  0  0  0  0  0
   -1.1684   -0.0611    5.9070 H   0  0  0  0  0  0  0  0  0  0  0  0
   -2.4188    0.7775    4.9622 H   0  0  0  0  0  0  0  0  0  0  0  0
   -2.3528   -0.9999    4.9714 H   0  0  0  0  0  0  0  0  0  0  0  0
    1.2732   -0.0554    4.6559 H   0  0  0  0  0  0  0  0  0  0  0  0
   -2.5731    0.6852    1.1501 H   0  0  0  0  0  0  0  0  0  0  0  0
   -3.1973    0.3093    2.7684 H   0  0  0  0  0  0  0  0  0  0  0  0
   -2.3537   -1.7788    0.6529 H   0  0  0  0  0  0  0  0  0  0  0  0
   -3.2663   -3.4780    2.2685 H   0  0  0  0  0  0  0  0  0  0  0  0
   -3.6220   -2.1530    3.4859 H   0  0  0  0  0  0  0  0  0  0  0  0
   -4.8073   -2.3143    0.5904 H   0  0  0  0  0  0  0  0  0  0  0  0
   -5.1381   -1.0008    1.8275 H   0  0  0  0  0  0  0  0  0  0  0  0
   -0.2270    2.2465   -0.5391 Au  0  0  0  0  0  0  0  0  0  0  0  0
  1 14  1  0  0  0  0
  1 12  1  0  0  0  0
  2  1  1  1  0  0  0
  3  2  1  0  0  0  0
  3 15  1  0  0  0  0
  4  3  2  0  0  0  0
  5  6  1  0  0  0  0
  5  4  2  0  0  0  0
  6  2  1  0  0  0  0
  7  6  1  0  0  0  0
  7 17  1  0  0  0  0
  8  7  1  0  0  0  0
  8  9  1  0  0  0  0
  9 20  1  0  0  0  0
 10  8  1  0  0  0  0
 10 22  1  0  0  0  0
 10  9  1  0  0  0  0
 11  5  1  0  0  0  0
 13  1  1  0  0  0  0
 16  7  1  0  0  0  0
 18  8  1  0  0  0  0
 19  9  1  0  0  0  0
 21 10  1  0  0  0  0
 23 11  1  0  0  0  0
M  RAD  1   2   2
M  END
