97202164.xyz
 OpenBabel07262113563D
Cc1nc(cs1)CCS
 18 19  0  0  1  0  0  0  0  0999 V2000
    3.7757   -4.2840    1.5643 C   0  0  0  0  0  0  0  0  0  0  0  0
    3.0993   -3.2497    2.4016 C   0  0  1  0  0  0  0  0  0  0  0  0
    2.6281   -2.1188    1.9401 N   0  0  0  0  0  0  0  0  0  0  0  0
    1.9906   -1.3411    2.9065 C   0  0  0  0  0  0  0  0  0  0  0  0
    2.0036   -1.9283    4.1450 C   0  0  0  0  0  0  0  0  0  0  0  0
    2.8072   -3.4614    4.1036 S   0  0  0  0  0  0  0  0  0  0  0  0
    1.3656    0.0000    2.6005 C   0  0  0  0  0  0  0  0  0  0  0  0
    0.0000    0.0000    1.8630 C   0  0  0  0  0  0  0  0  0  0  0  0
    0.0000    0.0000    0.0000 S   0  0  0  0  0  0  0  0  0  0  0  0
    4.4155   -3.7923    0.8165 H   0  0  0  0  0  0  0  0  0  0  0  0
    4.3902   -4.9619    2.1726 H   0  0  0  0  0  0  0  0  0  0  0  0
    3.0281   -4.8890    1.0244 H   0  0  0  0  0  0  0  0  0  0  0  0
    1.5894   -1.5330    5.0701 H   0  0  0  0  0  0  0  0  0  0  0  0
    2.0802    0.6197    2.0353 H   0  0  0  0  0  0  0  0  0  0  0  0
    1.2167    0.4966    3.5733 H   0  0  0  0  0  0  0  0  0  0  0  0
   -0.5260    0.9304    2.1298 H   0  0  0  0  0  0  0  0  0  0  0  0
   -0.6156   -0.8352    2.2325 H   0  0  0  0  0  0  0  0  0  0  0  0
    1.7395   -1.5413   -0.0898 Au  0  0  0  0  0  0  0  0  0  0  0  0
  1 11  1  0  0  0  0
  2  1  1  6  0  0  0
  2  6  1  0  0  0  0
  3  2  1  0  0  0  0
  3  4  1  0  0  0  0
  4  5  2  0  0  0  0
  5 13  1  0  0  0  0
  6  5  1  0  0  0  0
  7  4  1  0  0  0  0
  7 15  1  0  0  0  0
  8 16  1  0  0  0  0
  8 17  1  0  0  0  0
  8  7  1  0  0  0  0
  9  8  1  0  0  0  0
 10  1  1  0  0  0  0
 12  1  1  0  0  0  0
 14  7  1  0  0  0  0
 18  9  1  0  0  0  0
 18  3  1  0  0  0  0
M  RAD  1   2   2
M  END
