97218992.xyz
 OpenBabel07262113563D
SCCn1cncc(c1=O)Br
 18 18  0  0  1  0  0  0  0  0999 V2000
    0.0000    0.0000    0.0000 S   0  0  0  0  0  0  0  0  0  0  0  0
   -0.0000    0.0000    1.8306 C   0  0  0  0  0  0  0  0  0  0  0  0
    1.4087    0.0000    2.4258 C   0  0  0  0  0  0  0  0  0  0  0  0
    1.3908    0.2925    3.8623 N   0  0  0  0  0  0  0  0  0  0  0  0
    1.5009   -0.6968    4.7898 C   0  0  0  0  0  0  0  0  0  0  0  0
    1.4711   -0.5170    6.0744 N   0  0  0  0  0  0  0  0  0  0  0  0
    1.3165    0.7655    6.5148 C   0  0  0  0  0  0  0  0  0  0  0  0
    1.1980    1.8363    5.6698 C   0  0  1  0  0  0  0  0  0  0  0  0
    1.2181    1.6574    4.2226 C   0  0  0  0  0  0  0  0  0  0  0  0
    1.1049    2.5161    3.3674 O   0  0  0  0  0  0  0  0  0  0  0  0
    0.9887    3.5964    6.3131 Br  0  0  0  0  0  0  0  0  0  0  0  0
    0.8201    2.1091   -0.4108 Au  0  0  0  0  0  0  0  0  0  0  0  0
   -0.5678    0.8606    2.2062 H   0  0  0  0  0  0  0  0  0  0  0  0
   -0.5442   -0.9163    2.1158 H   0  0  0  0  0  0  0  0  0  0  0  0
    1.9069   -0.9661    2.2682 H   0  0  0  0  0  0  0  0  0  0  0  0
    2.0063    0.7839    1.9432 H   0  0  0  0  0  0  0  0  0  0  0  0
    1.6279   -1.7081    4.3859 H   0  0  0  0  0  0  0  0  0  0  0  0
    1.2901    0.9129    7.5984 H   0  0  0  0  0  0  0  0  0  0  0  0
  1  2  1  0  0  0  0
  2 14  1  0  0  0  0
  2 13  1  0  0  0  0
  2  3  1  0  0  0  0
  3  4  1  0  0  0  0
  4  9  1  0  0  0  0
  4  5  1  0  0  0  0
  5  6  2  0  0  0  0
  6  7  2  0  0  0  0
  7 18  1  0  0  0  0
  8 11  1  6  0  0  0
  8  7  1  0  0  0  0
  9  8  1  0  0  0  0
 10  9  2  0  0  0  0
 12  1  1  0  0  0  0
 15  3  1  0  0  0  0
 16  3  1  0  0  0  0
 17  5  1  0  0  0  0
M  RAD  1   8   2
M  END
