97219026.xyz
 OpenBabel07262113563D
Cc1nc(on1)CCCS
 20 20  0  0  0  0  0  0  0  0999 V2000
   -0.1513    5.1357    3.6032 C   0  0  0  0  0  0  0  0  0  0  0  0
    0.8875    4.2340    3.0334 C   0  0  0  0  0  0  0  0  0  0  0  0
    0.7479    2.8624    2.9638 N   0  0  0  0  0  0  0  0  0  0  0  0
    1.8612    2.4819    2.4073 C   0  0  0  0  0  0  0  0  0  0  0  0
    2.6728    3.5122    2.1318 O   0  0  0  0  0  0  0  0  0  0  0  0
    2.0212    4.6734    2.5499 N   0  0  0  0  0  0  0  0  0  0  0  0
    2.3201    1.1097    2.0500 C   0  0  0  0  0  0  0  0  0  0  0  0
    1.3724    0.0000    2.5065 C   0  0  0  0  0  0  0  0  0  0  0  0
    0.0000   -0.0000    1.8330 C   0  0  0  0  0  0  0  0  0  0  0  0
    0.0000    0.0000    0.0000 S   0  0  0  0  0  0  0  0  0  0  0  0
   -0.3569    4.8642    4.6501 H   0  0  0  0  0  0  0  0  0  0  0  0
    0.1832    6.1799    3.5565 H   0  0  0  0  0  0  0  0  0  0  0  0
   -1.0937    5.0295    3.0439 H   0  0  0  0  0  0  0  0  0  0  0  0
    3.3236    0.9634    2.4821 H   0  0  0  0  0  0  0  0  0  0  0  0
    2.4463    1.0670    0.9547 H   0  0  0  0  0  0  0  0  0  0  0  0
    1.2144    0.0747    3.5957 H   0  0  0  0  0  0  0  0  0  0  0  0
    1.8635   -0.9690    2.3162 H   0  0  0  0  0  0  0  0  0  0  0  0
   -0.6097   -0.8354    2.2045 H   0  0  0  0  0  0  0  0  0  0  0  0
   -0.5308    0.9352    2.0761 H   0  0  0  0  0  0  0  0  0  0  0  0
    1.0571   -1.9660   -0.5352 Au  0  0  0  0  0  0  0  0  0  0  0  0
  1 11  1  0  0  0  0
  2  1  1  0  0  0  0
  3  2  2  0  0  0  0
  4  3  2  0  0  0  0
  5  4  1  0  0  0  0
  5  6  1  0  0  0  0
  6  2  2  0  0  0  0
  7  4  1  0  0  0  0
  7 14  1  0  0  0  0
  7  8  1  0  0  0  0
  8 16  1  0  0  0  0
  9 19  1  0  0  0  0
  9 18  1  0  0  0  0
  9  8  1  0  0  0  0
 10  9  1  0  0  0  0
 12  1  1  0  0  0  0
 13  1  1  0  0  0  0
 15  7  1  0  0  0  0
 17  8  1  0  0  0  0
 20 10  1  0  0  0  0
M  END
